

        *** GPGPU-Sim Simulator Version 3.2.2  [build 0] ***


GPGPU-Sim PTX: simulation mode 0 (can change with PTX_SIM_MODE_FUNC environment variable:
               1=functional simulation only, 0=detailed performance simulator)
GPGPU-Sim: Configuration options:

-network_mode                           1 # Interconnection network mode
-inter_config_file   config_fermi_islip.icnt # Interconnection network config file
-gpgpu_ptx_use_cuobjdump                    1 # Use cuobjdump to extract ptx and sass from binaries
-gpgpu_experimental_lib_support                    0 # Try to extract code from cuda libraries [Broken because of unknown cudaGetExportTable]
-gpgpu_ptx_convert_to_ptxplus                    0 # Convert SASS (native ISA) to ptxplus and run ptxplus
-gpgpu_ptx_force_max_capability                   20 # Force maximum compute capability
-gpgpu_ptx_inst_debug_to_file                    0 # Dump executed instructions' debug information to file
-gpgpu_ptx_inst_debug_file       inst_debug.txt # Executed instructions' debug output file
-gpgpu_ptx_inst_debug_thread_uid                    1 # Thread UID for executed instructions' debug output
-gpgpu_simd_model                       1 # 1 = post-dominator
-gpgpu_shader_core_pipeline              1536:32 # shader core pipeline config, i.e., {<nthread>:<warpsize>}
-gpgpu_tex_cache:l1  4:128:24,L:R:m:N:L,F:128:4,128:2 # per-shader L1 texture cache  (READ-ONLY) config  {<nsets>:<bsize>:<assoc>,<rep>:<wr>:<alloc>:<wr_alloc>,<mshr>:<N>:<merge>,<mq>:<rf>}
-gpgpu_const_cache:l1 64:64:2,L:R:f:N:L,A:2:32,4 # per-shader L1 constant memory cache  (READ-ONLY) config  {<nsets>:<bsize>:<assoc>,<rep>:<wr>:<alloc>:<wr_alloc>,<mshr>:<N>:<merge>,<mq>} 
-gpgpu_cache:il1     4:128:4,L:R:f:N:L,A:2:32,4 # shader L1 instruction cache config  {<nsets>:<bsize>:<assoc>,<rep>:<wr>:<alloc>:<wr_alloc>,<mshr>:<N>:<merge>,<mq>} 
-gpgpu_cache:dl1     32:128:4,L:L:m:N:H,A:32:8,8 # per-shader L1 data cache config  {<nsets>:<bsize>:<assoc>,<rep>:<wr>:<alloc>:<wr_alloc>,<mshr>:<N>:<merge>,<mq> | none}
-gpgpu_cache:dl1PrefL1                 none # per-shader L1 data cache config  {<nsets>:<bsize>:<assoc>,<rep>:<wr>:<alloc>:<wr_alloc>,<mshr>:<N>:<merge>,<mq> | none}
-gpgpu_cache:dl1PreShared                 none # per-shader L1 data cache config  {<nsets>:<bsize>:<assoc>,<rep>:<wr>:<alloc>:<wr_alloc>,<mshr>:<N>:<merge>,<mq> | none}
-gmem_skip_L1D                          0 # global memory access skip L1D cache (implements -Xptxas -dlcm=cg, default=no skip)
-gpgpu_perfect_mem                      0 # enable perfect memory mode (no cache miss)
-n_regfile_gating_group                    4 # group of lanes that should be read/written together)
-gpgpu_clock_gated_reg_file                    0 # enable clock gated reg file for power calculations
-gpgpu_clock_gated_lanes                    0 # enable clock gated lanes for power calculations
-gpgpu_shader_registers                32768 # Number of registers per shader core. Limits number of concurrent CTAs. (default 8192)
-gpgpu_shader_cta                       8 # Maximum number of concurrent CTAs in shader (default 8)
-gpgpu_num_cta_barriers                   16 # Maximum number of named barriers per CTA (default 16)
-gpgpu_n_clusters                      15 # number of processing clusters
-gpgpu_n_cores_per_cluster                    1 # number of simd cores per cluster
-gpgpu_n_cluster_ejection_buffer_size                    8 # number of packets in ejection buffer
-gpgpu_n_ldst_response_buffer_size                    2 # number of response packets in ld/st unit ejection buffer
-gpgpu_shmem_size                   16384 # Size of shared memory per shader core (default 16kB)
-gpgpu_shmem_size                   49152 # Size of shared memory per shader core (default 16kB)
-gpgpu_shmem_size_PrefL1                16384 # Size of shared memory per shader core (default 16kB)
-gpgpu_shmem_size_PrefShared                16384 # Size of shared memory per shader core (default 16kB)
-gpgpu_shmem_num_banks                   32 # Number of banks in the shared memory in each shader core (default 16)
-gpgpu_shmem_limited_broadcast                    0 # Limit shared memory to do one broadcast per cycle (default on)
-gpgpu_shmem_warp_parts                    1 # Number of portions a warp is divided into for shared memory bank conflict check 
-gpgpu_warpdistro_shader                   -1 # Specify which shader core to collect the warp size distribution from
-gpgpu_warp_issue_shader                    0 # Specify which shader core to collect the warp issue distribution from
-gpgpu_local_mem_map                    1 # Mapping from local memory space address to simulated GPU physical address space (default = enabled)
-gpgpu_num_reg_banks                   16 # Number of register banks (default = 8)
-gpgpu_reg_bank_use_warp_id                    0 # Use warp ID in mapping registers to banks (default = off)
-gpgpu_operand_collector_num_units_sp                    6 # number of collector units (default = 4)
-gpgpu_operand_collector_num_units_sfu                    8 # number of collector units (default = 4)
-gpgpu_operand_collector_num_units_mem                    2 # number of collector units (default = 2)
-gpgpu_operand_collector_num_units_gen                    0 # number of collector units (default = 0)
-gpgpu_operand_collector_num_in_ports_sp                    2 # number of collector unit in ports (default = 1)
-gpgpu_operand_collector_num_in_ports_sfu                    1 # number of collector unit in ports (default = 1)
-gpgpu_operand_collector_num_in_ports_mem                    1 # number of collector unit in ports (default = 1)
-gpgpu_operand_collector_num_in_ports_gen                    0 # number of collector unit in ports (default = 0)
-gpgpu_operand_collector_num_out_ports_sp                    2 # number of collector unit in ports (default = 1)
-gpgpu_operand_collector_num_out_ports_sfu                    1 # number of collector unit in ports (default = 1)
-gpgpu_operand_collector_num_out_ports_mem                    1 # number of collector unit in ports (default = 1)
-gpgpu_operand_collector_num_out_ports_gen                    0 # number of collector unit in ports (default = 0)
-gpgpu_coalesce_arch                   13 # Coalescing arch (default = 13, anything else is off for now)
-gpgpu_num_sched_per_core                    1 # Number of warp schedulers per core
-gpgpu_max_insn_issue_per_warp                    1 # Max number of instructions that can be issued per warp in one cycle by scheduler
-gpgpu_simt_core_sim_order                    1 # Select the simulation order of cores in a cluster (0=Fix, 1=Round-Robin)
-gpgpu_pipeline_widths        2,1,1,2,1,1,2 # Pipeline widths ID_OC_SP,ID_OC_SFU,ID_OC_MEM,OC_EX_SP,OC_EX_SFU,OC_EX_MEM,EX_WB
-gpgpu_num_sp_units                     2 # Number of SP units (default=1)
-gpgpu_num_sfu_units                    1 # Number of SF units (default=1)
-gpgpu_num_mem_units                    1 # Number if ldst units (default=1) WARNING: not hooked up to anything
-gpgpu_scheduler                      gto # Scheduler configuration: < lrr | gto | two_level_active > If two_level_active:<num_active_warps>:<inner_prioritization>:<outer_prioritization>For complete list of prioritization values see shader.h enum scheduler_prioritization_typeDefault: gto
-gpgpu_dram_scheduler                    1 # 0 = fifo, 1 = FR-FCFS (defaul)
-gpgpu_dram_partition_queues              8:8:8:8 # i2$:$2d:d2$:$2i
-l2_ideal                               0 # Use a ideal L2 cache that always hit
-gpgpu_cache:dl2     64:128:8,L:B:m:W:L,A:32:4,4:0,32 # unified banked L2 data cache config  {<nsets>:<bsize>:<assoc>,<rep>:<wr>:<alloc>:<wr_alloc>,<mshr>:<N>:<merge>,<mq>}
-gpgpu_cache:dl2_texture_only                    0 # L2 cache used for texture only
-gpgpu_n_mem                            6 # number of memory modules (e.g. memory controllers) in gpu
-gpgpu_n_sub_partition_per_mchannel                    2 # number of memory subpartition in each memory module
-gpgpu_n_mem_per_ctrlr                    2 # number of memory chips per memory controller
-gpgpu_memlatency_stat                   14 # track and display latency statistics 0x2 enables MC, 0x4 enables queue logs
-gpgpu_frfcfs_dram_sched_queue_size                   16 # 0 = unlimited (default); # entries per chip
-gpgpu_dram_return_queue_size                  116 # 0 = unlimited (default); # entries per chip
-gpgpu_dram_buswidth                    4 # default = 4 bytes (8 bytes per cycle at DDR)
-gpgpu_dram_burst_length                    8 # Burst length of each DRAM request (default = 4 data bus cycle)
-dram_data_command_freq_ratio                    4 # Frequency ratio between DRAM data bus and command bus (default = 2 times, i.e. DDR)
-gpgpu_dram_timing_opt nbk=16:CCD=2:RRD=6:RCD=12:RAS=28:RP=12:RC=40: CL=12:WL=4:CDLR=5:WR=12:nbkgrp=4:CCDL=3:RTPL=2 # DRAM timing parameters = {nbk:tCCD:tRRD:tRCD:tRAS:tRP:tRC:CL:WL:tCDLR:tWR:nbkgrp:tCCDL:tRTPL}
-rop_latency                          120 # ROP queue latency (default 85)
-dram_latency                         100 # DRAM latency (default 30)
-gpgpu_mem_addr_mapping dramid@8;00000000.00000000.00000000.00000000.0000RRRR.RRRRRRRR.BBBCCCCB.CCSSSSSS # mapping memory address to dram model {dramid@<start bit>;<memory address map>}
-gpgpu_mem_addr_test                    0 # run sweep test to check address mapping for aliased address
-gpgpu_mem_address_mask                    1 # 0 = old addressing mask, 1 = new addressing mask, 2 = new add. mask + flipped bank sel and chip sel bits
-gpuwattch_xml_file  gpuwattch_gtx480.xml # GPUWattch XML file
-power_simulation_enabled                    1 # Turn on power simulator (1=On, 0=Off)
-power_per_cycle_dump                    0 # Dump detailed power output each cycle
-power_trace_enabled                    0 # produce a file for the power trace (1=On, 0=Off)
-power_trace_zlevel                     6 # Compression level of the power trace output log (0=no comp, 9=highest)
-steady_power_levels_enabled                    0 # produce a file for the steady power levels (1=On, 0=Off)
-steady_state_definition                  8:4 # allowed deviation:number of samples
-gpgpu_max_cycle                        0 # terminates gpu simulation early (0 = no limit)
-gpgpu_max_insn                         0 # terminates gpu simulation early (0 = no limit)
-gpgpu_max_cta                          0 # terminates gpu simulation early (0 = no limit)
-gpgpu_runtime_stat                   500 # display runtime statistics such as dram utilization {<freq>:<flag>}
-liveness_message_freq                    1 # Minimum number of seconds between simulation liveness messages (0 = always print)
-gpgpu_flush_l1_cache                    0 # Flush L1 cache at the end of each kernel call
-gpgpu_flush_l2_cache                    0 # Flush L2 cache at the end of each kernel call
-gpgpu_deadlock_detect                    1 # Stop the simulation at deadlock (1=on (default), 0=off)
-gpgpu_ptx_instruction_classification                    0 # if enabled will classify ptx instruction types per kernel (Max 255 kernels now)
-gpgpu_ptx_sim_mode                     0 # Select between Performance (default) or Functional simulation (1)
-gpgpu_clock_domains 700.0:700.0:700.0:924.0 # Clock Domain Frequencies in MhZ {<Core Clock>:<ICNT Clock>:<L2 Clock>:<DRAM Clock>}
-gpgpu_max_concurrent_kernel                    8 # maximum kernels that can run concurrently on GPU
-gpgpu_cflog_interval                    0 # Interval between each snapshot in control flow logger
-visualizer_enabled                     0 # Turn on visualizer output (1=On, 0=Off)
-visualizer_outputfile                 NULL # Specifies the output log file for visualizer
-visualizer_zlevel                      6 # Compression level of the visualizer output log (0=no comp, 9=highest)
-trace_enabled                          0 # Turn on traces
-trace_components                    none # comma seperated list of traces to enable. Complete list found in trace_streams.tup. Default none
-trace_sampling_core                    0 # The core which is printed using CORE_DPRINTF. Default 0
-trace_sampling_memory_partition                   -1 # The memory partition which is printed using MEMPART_DPRINTF. Default -1 (i.e. all)
-enable_ptx_file_line_stats                    1 # Turn on PTX source line statistic profiling. (1 = On)
-ptx_line_stats_filename gpgpu_inst_stats.txt # Output file for PTX source line statistics.
-save_embedded_ptx                      0 # saves ptx files embedded in binary as <n>.ptx
-keep                                   0 # keep intermediate files created by GPGPU-Sim when interfacing with external programs
-gpgpu_ptx_save_converted_ptxplus                    0 # Saved converted ptxplus to a file
-ptx_opcode_latency_int         4,13,4,5,145 # Opcode latencies for integers <ADD,MAX,MUL,MAD,DIV>Default 1,1,19,25,145
-ptx_opcode_latency_fp          4,13,4,5,39 # Opcode latencies for single precision floating points <ADD,MAX,MUL,MAD,DIV>Default 1,1,1,1,30
-ptx_opcode_latency_dp         8,19,8,8,330 # Opcode latencies for double precision floating points <ADD,MAX,MUL,MAD,DIV>Default 8,8,8,8,335
-ptx_opcode_initiation_int            1,2,2,1,8 # Opcode initiation intervals for integers <ADD,MAX,MUL,MAD,DIV>Default 1,1,4,4,32
-ptx_opcode_initiation_fp            1,2,1,1,4 # Opcode initiation intervals for single precision floating points <ADD,MAX,MUL,MAD,DIV>Default 1,1,1,1,5
-ptx_opcode_initiation_dp         8,16,8,8,130 # Opcode initiation intervals for double precision floating points <ADD,MAX,MUL,MAD,DIV>Default 8,8,8,8,130
DRAM Timing Options:
nbk                                    16 # number of banks
CCD                                     2 # column to column delay
RRD                                     6 # minimal delay between activation of rows in different banks
RCD                                    12 # row to column delay
RAS                                    28 # time needed to activate row
RP                                     12 # time needed to precharge (deactivate) row
RC                                     40 # row cycle time
CDLR                                    5 # switching from write to read (changes tWTR)
WR                                     12 # last data-in to row precharge
CL                                     12 # CAS latency
WL                                      4 # Write latency
nbkgrp                                  4 # number of bank groups
CCDL                                    3 # column to column delay between accesses to different bank groups
RTPL                                    2 # read to precharge delay between accesses to different bank groups
Total number of memory sub partition = 12
addr_dec_mask[CHIP]  = 0000000000000000 	high:64 low:0
addr_dec_mask[BK]    = 000000000000e100 	high:16 low:8
addr_dec_mask[ROW]   = 000000000fff0000 	high:28 low:16
addr_dec_mask[COL]   = 0000000000001eff 	high:13 low:0
addr_dec_mask[BURST] = 000000000000003f 	high:6 low:0
sub_partition_id_mask = 0000000000000100
GPGPU-Sim uArch: clock freqs: 700000000.000000:700000000.000000:700000000.000000:924000000.000000
GPGPU-Sim uArch: clock periods: 0.00000000142857142857:0.00000000142857142857:0.00000000142857142857:0.00000000108225108225
*** Initializing Memory Statistics ***
GPGPU-Sim uArch: interconnect node map (shaderID+MemID to icntID)
GPGPU-Sim uArch: Memory nodes ID start from index: 15
GPGPU-Sim uArch:    0   1   2   3   4
GPGPU-Sim uArch:    5   6   7   8   9
GPGPU-Sim uArch:   10  11  12  13  14
GPGPU-Sim uArch:   15  16  17  18  19
GPGPU-Sim uArch:   20  21  22  23  24
GPGPU-Sim uArch:   25  26
GPGPU-Sim uArch: interconnect node reverse map (icntID to shaderID+MemID)
GPGPU-Sim uArch: Memory nodes start from ID: 15
GPGPU-Sim uArch:    0   1   2   3   4
GPGPU-Sim uArch:    5   6   7   8   9
GPGPU-Sim uArch:   10  11  12  13  14
GPGPU-Sim uArch:   15  16  17  18  19
GPGPU-Sim uArch:   20  21  22  23  24
GPGPU-Sim uArch:   25  26
eb5b2248bb56c0855732ae404017953f  /home/kishore/project_source/gpu_class_proj/gpgpusim-benchmarks-master/bin/release/AES
GPGPU-Sim uArch: performance model initialization complete.
GPGPU-Sim PTX: __cudaRegisterFatBinary, fat_cubin_handle = 1, filename=aesHost.cu
self exe links to: /home/kishore/project_source/gpu_class_proj/gpgpusim-benchmarks-master/bin/release/AES
Running md5sum using "md5sum /home/kishore/project_source/gpu_class_proj/gpgpusim-benchmarks-master/bin/release/AES "
Running cuobjdump using "$CUDA_INSTALL_PATH/bin/cuobjdump -ptx -elf -sass /home/kishore/project_source/gpu_class_proj/gpgpusim-benchmarks-master/bin/release/AES > _cuobjdump_complete_output_NW1U7w"
Parsing file _cuobjdump_complete_output_NW1U7w
######### cuobjdump parser ########
## Adding new section ELF
Adding arch: sm_10
Adding identifier: aesHost.cu
## Adding new section PTX
Adding ptx filename: _cuobjdump_1.ptx
Adding arch: sm_10
Adding identifier: aesHost.cu
## Adding new section ELF
Adding arch: sm_20
Adding identifier: aesHost.cu
## Adding new section PTX
Adding ptx filename: _cuobjdump_2.ptx
Adding arch: sm_20
Adding identifier: aesHost.cu
Done parsing!!!
GPGPU-Sim PTX: __cudaRegisterFunction _Z13aesDecrypt256PjS_i : hostFun 0x0x4081d0, fat_cubin_handle = 1
GPGPU-Sim PTX: allocating global region for "texEKey128" from 0x100 to 0x104 (global memory space)
GPGPU-Sim PTX: allocating constant region for "posIdx_E" from 0x120 to 0x140 (global memory space) 1
GPGPU-Sim PTX: allocating constant region for "TBox0" from 0x180 to 0x580 (global memory space) 2
GPGPU-Sim PTX: allocating constant region for "TBox1" from 0x580 to 0x980 (global memory space) 3
GPGPU-Sim PTX: allocating constant region for "TBox2" from 0x980 to 0xd80 (global memory space) 4
GPGPU-Sim PTX: allocating constant region for "TBox3" from 0xd80 to 0x1180 (global memory space) 5
GPGPU-Sim PTX: allocating shared region for "__cuda___cuda_local_var_34617_33_non_const_tBox1Block20" from 0x0 to 0x400 (shared memory space)
GPGPU-Sim PTX: allocating shared region for "__cuda___cuda_local_var_34619_33_non_const_tBox3Block1044" from 0x400 to 0x800 (shared memory space)
GPGPU-Sim PTX: allocating shared region for "__cuda___cuda_local_var_34612_36_non_const_stageBlock12068" from 0x800 to 0xc00 (shared memory space)
GPGPU-Sim PTX: allocating shared region for "__cuda___cuda_local_var_34616_33_non_const_tBox0Block3092" from 0xc00 to 0x1000 (shared memory space)
GPGPU-Sim PTX: allocating shared region for "__cuda___cuda_local_var_34618_33_non_const_tBox2Block4116" from 0x1000 to 0x1400 (shared memory space)
GPGPU-Sim PTX: allocating shared region for "__cuda___cuda_local_var_34613_33_non_const_stageBlock25140" from 0x1400 to 0x1800 (shared memory space)
GPGPU-Sim PTX: instruction assembly for function '_Z13aesEncrypt128PjS_i'...   done.
GPGPU-Sim PTX: finding reconvergence points for '_Z13aesEncrypt128PjS_i'...
GPGPU-Sim PTX: Finding dominators for '_Z13aesEncrypt128PjS_i'...
GPGPU-Sim PTX: Finding immediate dominators for '_Z13aesEncrypt128PjS_i'...
GPGPU-Sim PTX: Finding postdominators for '_Z13aesEncrypt128PjS_i'...
GPGPU-Sim PTX: Finding immediate postdominators for '_Z13aesEncrypt128PjS_i'...
GPGPU-Sim PTX: pre-decoding instructions for '_Z13aesEncrypt128PjS_i'...
GPGPU-Sim PTX: reconvergence points for _Z13aesEncrypt128PjS_i...
GPGPU-Sim PTX: ... end of reconvergence points for _Z13aesEncrypt128PjS_i
GPGPU-Sim PTX: ... done pre-decoding instructions for '_Z13aesEncrypt128PjS_i'.
GPGPU-Sim PTX: allocating global region for "texDKey128" from 0x1180 to 0x1184 (global memory space)
GPGPU-Sim PTX: allocating constant region for "posIdx_D" from 0x11a0 to 0x11c0 (global memory space) 6
GPGPU-Sim PTX: allocating constant region for "TBoxi0" from 0x1200 to 0x1600 (global memory space) 7
GPGPU-Sim PTX: allocating constant region for "TBoxi1" from 0x1600 to 0x1a00 (global memory space) 8
GPGPU-Sim PTX: allocating constant region for "TBoxi2" from 0x1a00 to 0x1e00 (global memory space) 9
GPGPU-Sim PTX: allocating constant region for "TBoxi3" from 0x1e00 to 0x2200 (global memory space) 10
GPGPU-Sim PTX: allocating constant region for "inv_SBox" from 0x2200 to 0x2600 (global memory space) 11
GPGPU-Sim PTX: allocating shared region for "__cuda___cuda_local_var_34973_36_non_const_tBox1Block6188" from 0x0 to 0x400 (shared memory space)
GPGPU-Sim PTX: allocating shared region for "__cuda___cuda_local_var_34975_36_non_const_tBox3Block7212" from 0x400 to 0x800 (shared memory space)
GPGPU-Sim PTX: allocating shared region for "__cuda___cuda_local_var_34970_36_non_const_stageBlock18236" from 0x800 to 0xc00 (shared memory space)
GPGPU-Sim PTX: allocating shared region for "__cuda___cuda_local_var_34972_36_non_const_tBox0Block9260" from 0xc00 to 0x1000 (shared memory space)
GPGPU-Sim PTX: allocating shared region for "__cuda___cuda_local_var_34974_36_non_const_tBox2Block10284" from 0x1000 to 0x1400 (shared memory space)
GPGPU-Sim PTX: allocating shared region for "__cuda___cuda_local_var_34976_36_non_const_invSBoxBlock11308" from 0x1400 to 0x1800 (shared memory space)
GPGPU-Sim PTX: allocating shared region for "__cuda___cuda_local_var_34971_33_non_const_stageBlock212332" from 0x1800 to 0x1c00 (shared memory space)
GPGPU-Sim PTX: instruction assembly for function '_Z13aesDecrypt128PjS_i'...   done.
GPGPU-Sim PTX: finding reconvergence points for '_Z13aesDecrypt128PjS_i'...
GPGPU-Sim PTX: Finding dominators for '_Z13aesDecrypt128PjS_i'...
GPGPU-Sim PTX: Finding immediate dominators for '_Z13aesDecrypt128PjS_i'...
GPGPU-Sim PTX: Finding postdominators for '_Z13aesDecrypt128PjS_i'...
GPGPU-Sim PTX: Finding immediate postdominators for '_Z13aesDecrypt128PjS_i'...
GPGPU-Sim PTX: pre-decoding instructions for '_Z13aesDecrypt128PjS_i'...
GPGPU-Sim PTX: reconvergence points for _Z13aesDecrypt128PjS_i...
GPGPU-Sim PTX: ... end of reconvergence points for _Z13aesDecrypt128PjS_i
GPGPU-Sim PTX: ... done pre-decoding instructions for '_Z13aesDecrypt128PjS_i'.
GPGPU-Sim PTX: allocating global region for "texEKey" from 0x2600 to 0x2604 (global memory space)
GPGPU-Sim PTX: allocating shared region for "__cuda___cuda_local_var_35328_33_non_const_tBox0Block13380" from 0x0 to 0x400 (shared memory space)
GPGPU-Sim PTX: allocating shared region for "__cuda___cuda_local_var_35330_33_non_const_tBox2Block14404" from 0x400 to 0x800 (shared memory space)
GPGPU-Sim PTX: allocating shared region for "__cuda___cuda_local_var_35329_33_non_const_tBox1Block15428" from 0x800 to 0xc00 (shared memory space)
GPGPU-Sim PTX: allocating shared region for "__cuda___cuda_local_var_35331_33_non_const_tBox3Block16452" from 0xc00 to 0x1000 (shared memory space)
GPGPU-Sim PTX: allocating shared region for "__cuda___cuda_local_var_35324_36_non_const_stageBlock117476" from 0x1000 to 0x1400 (shared memory space)
GPGPU-Sim PTX: allocating shared region for "__cuda___cuda_local_var_35325_33_non_const_stageBlock218500" from 0x1400 to 0x1800 (shared memory space)
GPGPU-Sim PTX: instruction assembly for function '_Z13aesEncrypt256PjS_i'...   done.
GPGPU-Sim PTX: finding reconvergence points for '_Z13aesEncrypt256PjS_i'...
GPGPU-Sim PTX: Finding dominators for '_Z13aesEncrypt256PjS_i'...
GPGPU-Sim PTX: Finding immediate dominators for '_Z13aesEncrypt256PjS_i'...
GPGPU-Sim PTX: Finding postdominators for '_Z13aesEncrypt256PjS_i'...
GPGPU-Sim PTX: Finding immediate postdominators for '_Z13aesEncrypt256PjS_i'...
GPGPU-Sim PTX: pre-decoding instructions for '_Z13aesEncrypt256PjS_i'...
GPGPU-Sim PTX: reconvergence points for _Z13aesEncrypt256PjS_i...
GPGPU-Sim PTX: ... end of reconvergence points for _Z13aesEncrypt256PjS_i
GPGPU-Sim PTX: ... done pre-decoding instructions for '_Z13aesEncrypt256PjS_i'.
GPGPU-Sim PTX: allocating global region for "texDKey" from 0x2604 to 0x2608 (global memory space)
GPGPU-Sim PTX: allocating shared region for "__cuda___cuda_local_var_35775_36_non_const_tBox0Block19548" from 0x0 to 0x400 (shared memory space)
GPGPU-Sim PTX: allocating shared region for "__cuda___cuda_local_var_35777_36_non_const_tBox2Block20572" from 0x400 to 0x800 (shared memory space)
GPGPU-Sim PTX: allocating shared region for "__cuda___cuda_local_var_35779_36_non_const_invSBoxBlock21596" from 0x800 to 0xc00 (shared memory space)
GPGPU-Sim PTX: allocating shared region for "__cuda___cuda_local_var_35776_36_non_const_tBox1Block22620" from 0xc00 to 0x1000 (shared memory space)
GPGPU-Sim PTX: allocating shared region for "__cuda___cuda_local_var_35778_36_non_const_tBox3Block23644" from 0x1000 to 0x1400 (shared memory space)
GPGPU-Sim PTX: allocating shared region for "__cuda___cuda_local_var_35773_36_non_const_stageBlock124668" from 0x1400 to 0x1800 (shared memory space)
GPGPU-Sim PTX: allocating shared region for "__cuda___cuda_local_var_35774_33_non_const_stageBlock225692" from 0x1800 to 0x1c00 (shared memory space)
GPGPU-Sim PTX: instruction assembly for function '_Z13aesDecrypt256PjS_i'...   done.
GPGPU-Sim PTX: finding reconvergence points for '_Z13aesDecrypt256PjS_i'...
GPGPU-Sim PTX: Finding dominators for '_Z13aesDecrypt256PjS_i'...
GPGPU-Sim PTX: Finding immediate dominators for '_Z13aesDecrypt256PjS_i'...
GPGPU-Sim PTX: Finding postdominators for '_Z13aesDecrypt256PjS_i'...
GPGPU-Sim PTX: Finding immediate postdominators for '_Z13aesDecrypt256PjS_i'...
GPGPU-Sim PTX: pre-decoding instructions for '_Z13aesDecrypt256PjS_i'...
GPGPU-Sim PTX: reconvergence points for _Z13aesDecrypt256PjS_i...
GPGPU-Sim PTX: ... end of reconvergence points for _Z13aesDecrypt256PjS_i
GPGPU-Sim PTX: ... done pre-decoding instructions for '_Z13aesDecrypt256PjS_i'.
GPGPU-Sim PTX: finished parsing EMBEDDED .ptx file _1.ptx
Adding _cuobjdump_2.ptx with cubin handle 1
GPGPU-Sim PTX: extracting embedded .ptx to temporary file "_ptx_lwBilD"
Running: cat _ptx_lwBilD | sed 's/.version 1.5/.version 1.4/' | sed 's/, texmode_independent//' | sed 's/\(\.extern \.const\[1\] .b8 \w\+\)\[\]/\1\[1\]/' | sed 's/const\[.\]/const\[0\]/g' > _ptx2_fhbIyJ
GPGPU-Sim PTX: generating ptxinfo using "$CUDA_INSTALL_PATH/bin/ptxas --gpu-name=sm_20 -v _ptx2_fhbIyJ --output-file  /dev/null 2> _ptx_lwBilDinfo"
GPGPU-Sim PTX: Kernel '_Z13aesDecrypt256PjS_i' : regs=15, lmem=0, smem=7168, cmem=9332
GPGPU-Sim PTX: Kernel '_Z13aesEncrypt256PjS_i' : regs=15, lmem=0, smem=6144, cmem=9332
GPGPU-Sim PTX: Kernel '_Z13aesDecrypt128PjS_i' : regs=15, lmem=0, smem=7168, cmem=9332
GPGPU-Sim PTX: Kernel '_Z13aesEncrypt128PjS_i' : regs=15, lmem=0, smem=6144, cmem=9332
GPGPU-Sim PTX: removing ptxinfo using "rm -f _ptx_lwBilD _ptx2_fhbIyJ _ptx_lwBilDinfo"
GPGPU-Sim PTX: loading globals with explicit initializers... 
GPGPU-Sim PTX: finished loading globals (0 bytes total).
GPGPU-Sim PTX: loading constants with explicit initializers...  done.
GPGPU-Sim PTX: __cudaRegisterFunction _Z13aesEncrypt256PjS_i : hostFun 0x0x408260, fat_cubin_handle = 1
GPGPU-Sim PTX: __cudaRegisterFunction _Z13aesDecrypt128PjS_i : hostFun 0x0x4082f0, fat_cubin_handle = 1
GPGPU-Sim PTX: __cudaRegisterFunction _Z13aesEncrypt128PjS_i : hostFun 0x0x408380, fat_cubin_handle = 1
GPGPU-Sim PTX: __cudaRegisterVar: hostVar = 0x65f3a0; deviceAddress = posIdx_E; deviceName = posIdx_E
GPGPU-Sim PTX: __cudaRegisterVar: Registering const memory space of 32 bytes
GPGPU-Sim PTX registering constant posIdx_E (32 bytes) to name mapping
GPGPU-Sim PTX: __cudaRegisterVar: hostVar = 0x65f3c0; deviceAddress = TBox0; deviceName = TBox0
GPGPU-Sim PTX: __cudaRegisterVar: Registering const memory space of 1024 bytes
GPGPU-Sim PTX registering constant TBox0 (1024 bytes) to name mapping
GPGPU-Sim PTX: __cudaRegisterVar: hostVar = 0x65f7c0; deviceAddress = TBox1; deviceName = TBox1
GPGPU-Sim PTX: __cudaRegisterVar: Registering const memory space of 1024 bytes
GPGPU-Sim PTX registering constant TBox1 (1024 bytes) to name mapping
GPGPU-Sim PTX: __cudaRegisterVar: hostVar = 0x65fbc0; deviceAddress = TBox2; deviceName = TBox2
GPGPU-Sim PTX: __cudaRegisterVar: Registering const memory space of 1024 bytes
GPGPU-Sim PTX registering constant TBox2 (1024 bytes) to name mapping
GPGPU-Sim PTX: __cudaRegisterVar: hostVar = 0x65ffc0; deviceAddress = TBox3; deviceName = TBox3
GPGPU-Sim PTX: __cudaRegisterVar: Registering const memory space of 1024 bytes
GPGPU-Sim PTX registering constant TBox3 (1024 bytes) to name mapping
GPGPU-Sim PTX: __cudaRegisterVar: hostVar = 0x6603c0; deviceAddress = posIdx_D; deviceName = posIdx_D
GPGPU-Sim PTX: __cudaRegisterVar: Registering const memory space of 32 bytes
GPGPU-Sim PTX registering constant posIdx_D (32 bytes) to name mapping
GPGPU-Sim PTX: __cudaRegisterVar: hostVar = 0x6603e0; deviceAddress = TBoxi0; deviceName = TBoxi0
GPGPU-Sim PTX: __cudaRegisterVar: Registering const memory space of 1024 bytes
GPGPU-Sim PTX registering constant TBoxi0 (1024 bytes) to name mapping
GPGPU-Sim PTX: __cudaRegisterVar: hostVar = 0x6607e0; deviceAddress = TBoxi1; deviceName = TBoxi1
GPGPU-Sim PTX: __cudaRegisterVar: Registering const memory space of 1024 bytes
GPGPU-Sim PTX registering constant TBoxi1 (1024 bytes) to name mapping
GPGPU-Sim PTX: __cudaRegisterVar: hostVar = 0x660be0; deviceAddress = TBoxi2; deviceName = TBoxi2
GPGPU-Sim PTX: __cudaRegisterVar: Registering const memory space of 1024 bytes
GPGPU-Sim PTX registering constant TBoxi2 (1024 bytes) to name mapping
GPGPU-Sim PTX: __cudaRegisterVar: hostVar = 0x660fe0; deviceAddress = TBoxi3; deviceName = TBoxi3
GPGPU-Sim PTX: __cudaRegisterVar: Registering const memory space of 1024 bytes
GPGPU-Sim PTX registering constant TBoxi3 (1024 bytes) to name mapping
GPGPU-Sim PTX: __cudaRegisterVar: hostVar = 0x6613e0; deviceAddress = inv_SBox; deviceName = inv_SBox
GPGPU-Sim PTX: __cudaRegisterVar: Registering const memory space of 1024 bytes
GPGPU-Sim PTX registering constant inv_SBox (1024 bytes) to name mapping
GPGPU-Sim PTX: in __cudaRegisterTexture:
GPGPU-Sim PTX:   int dim = 1
GPGPU-Sim PTX:   int norm = 0
GPGPU-Sim PTX:   int ext = 0
GPGPU-Sim PTX:   Execution warning: Not finished implementing "void __cudaRegisterTexture(void**, const textureReference*, const void**, const char*, int, int, int)"
GPGPU-Sim PTX: in __cudaRegisterTexture:
GPGPU-Sim PTX:   int dim = 1
GPGPU-Sim PTX:   int norm = 0
GPGPU-Sim PTX:   int ext = 0
GPGPU-Sim PTX:   Execution warning: Not finished implementing "void __cudaRegisterTexture(void**, const textureReference*, const void**, const char*, int, int, int)"
GPGPU-Sim PTX: in __cudaRegisterTexture:
GPGPU-Sim PTX:   int dim = 1
GPGPU-Sim PTX:   int norm = 0
GPGPU-Sim PTX:   int ext = 0
GPGPU-Sim PTX:   Execution warning: Not finished implementing "void __cudaRegisterTexture(void**, const textureReference*, const void**, const char*, int, int, int)"
GPGPU-Sim PTX: in __cudaRegisterTexture:
GPGPU-Sim PTX:   int dim = 1
GPGPU-Sim PTX:   int norm = 0
GPGPU-Sim PTX:   int ext = 0
GPGPU-Sim PTX:   Execution warning: Not finished implementing "void __cudaRegisterTexture(void**, const textureReference*, const void**, const char*, int, int, int)"

###############################################################

AES - CUDA by Svetlin Manavski)

AES 128 is running....

Input file size: 262198 Bytes

Key: 0123456789abcdef
GPGPU-Sim PTX: in cudaBindTexture: sizeof(struct textureReference) = 104
GPGPU-Sim PTX:   size = 176
GPGPU-Sim PTX:   texref = 0x65f1a0, array = 0x1841540
GPGPU-Sim PTX:   devPtr32 = 80040400
GPGPU-Sim PTX:   Name corresponding to textureReference: texEKey128
GPGPU-Sim PTX:   ChannelFormatDesc: x=32, y=0, z=0, w=0
GPGPU-Sim PTX:   Texture Normalized? = 0
GPGPU-Sim PTX:   texel size = 4
GPGPU-Sim PTX:   texture cache linesize = 128
GPGPU-Sim PTX:   Tx = 8; Ty = 4, Tx_numbits = 3, Ty_numbits = 2
GPGPU-Sim PTX:   Texel size = 4 bytes; texel_size_numbits = 2
GPGPU-Sim PTX:   Binding texture to array starting at devPtr32 = 0x80040400
GPGPU-Sim PTX:   Texel size = 4 bytes
GPGPU-Sim PTX: devPtr = 0xffffffff80040400
GPGPU-Sim PTX: in cudaBindTexture: sizeof(struct textureReference) = 104
GPGPU-Sim PTX:   size = 176
GPGPU-Sim PTX:   texref = 0x65f220, array = 0x1841600
GPGPU-Sim PTX:   devPtr32 = 80040400
GPGPU-Sim PTX:   Name corresponding to textureReference: texDKey128
GPGPU-Sim PTX:   ChannelFormatDesc: x=32, y=0, z=0, w=0
GPGPU-Sim PTX:   Texture Normalized? = 0
GPGPU-Sim PTX:   texel size = 4
GPGPU-Sim PTX:   texture cache linesize = 128
GPGPU-Sim PTX:   Tx = 8; Ty = 4, Tx_numbits = 3, Ty_numbits = 2
GPGPU-Sim PTX:   Texel size = 4 bytes; texel_size_numbits = 2
GPGPU-Sim PTX:   Binding texture to array starting at devPtr32 = 0x80040400
GPGPU-Sim PTX:   Texel size = 4 bytes
GPGPU-Sim PTX: devPtr = 0xffffffff80040400
GPGPU-Sim PTX: in cudaBindTexture: sizeof(struct textureReference) = 104
GPGPU-Sim PTX:   size = 176
GPGPU-Sim PTX:   texref = 0x65f2a0, array = 0x18416c0
GPGPU-Sim PTX:   devPtr32 = 80040400
GPGPU-Sim PTX:   Name corresponding to textureReference: texEKey
GPGPU-Sim PTX:   ChannelFormatDesc: x=32, y=0, z=0, w=0
GPGPU-Sim PTX:   Texture Normalized? = 0
GPGPU-Sim PTX:   texel size = 4
GPGPU-Sim PTX:   texture cache linesize = 128
GPGPU-Sim PTX:   Tx = 8; Ty = 4, Tx_numbits = 3, Ty_numbits = 2
GPGPU-Sim PTX:   Texel size = 4 bytes; texel_size_numbits = 2
GPGPU-Sim PTX:   Binding texture to array starting at devPtr32 = 0x80040400
GPGPU-Sim PTX:   Texel size = 4 bytes
GPGPU-Sim PTX: devPtr = 0xffffffff80040400
GPGPU-Sim PTX: in cudaBindTexture: sizeof(struct textureReference) = 104
GPGPU-Sim PTX:   size = 176
GPGPU-Sim PTX:   texref = 0x65f320, array = 0x1841780
GPGPU-Sim PTX:   devPtr32 = 80040400
GPGPU-Sim PTX:   Name corresponding to textureReference: texDKey
GPGPU-Sim PTX:   ChannelFormatDesc: x=32, y=0, z=0, w=0
GPGPU-Sim PTX:   Texture Normalized? = 0
GPGPU-Sim PTX:   texel size = 4
GPGPU-Sim PTX:   texture cache linesize = 128
GPGPU-Sim PTX:   Tx = 8; Ty = 4, Tx_numbits = 3, Ty_numbits = 2
GPGPU-Sim PTX:   Texel size = 4 bytes; texel_size_numbits = 2
GPGPU-Sim PTX:   Binding texture to array starting at devPtr32 = 0x80040400
GPGPU-Sim PTX:   Texel size = 4 bytes
GPGPU-Sim PTX: devPtr = 0xffffffff80040400

ENCRYPTION.....


GPGPU-Sim PTX: cudaLaunch for 0x0x408380 (mode=performance simulation) on stream 0
GPGPU-Sim PTX: pushing kernel '_Z13aesEncrypt128PjS_i' to stream 0, gridDim= (257,1,1) blockDim = (256,1,1) 
kernel '_Z13aesEncrypt128PjS_i' transfer to GPU hardware scheduler
GPGPU-Sim uArch: Shader 1 bind to kernel 1 '_Z13aesEncrypt128PjS_i'
GPGPU-Sim uArch: CTA/core = 6, limited by: threads
GPGPU-Sim uArch: core:  1, cta: 0 initialized @(1,0)
GPGPU-Sim uArch: Shader 2 bind to kernel 1 '_Z13aesEncrypt128PjS_i'
GPGPU-Sim uArch: core:  2, cta: 0 initialized @(1,0)
GPGPU-Sim uArch: Shader 3 bind to kernel 1 '_Z13aesEncrypt128PjS_i'
GPGPU-Sim uArch: core:  3, cta: 0 initialized @(1,0)
GPGPU-Sim uArch: Shader 4 bind to kernel 1 '_Z13aesEncrypt128PjS_i'
GPGPU-Sim uArch: core:  4, cta: 0 initialized @(1,0)
GPGPU-Sim uArch: Shader 5 bind to kernel 1 '_Z13aesEncrypt128PjS_i'
GPGPU-Sim uArch: core:  5, cta: 0 initialized @(1,0)
GPGPU-Sim uArch: Shader 6 bind to kernel 1 '_Z13aesEncrypt128PjS_i'
GPGPU-Sim uArch: core:  6, cta: 0 initialized @(1,0)
GPGPU-Sim uArch: Shader 7 bind to kernel 1 '_Z13aesEncrypt128PjS_i'
GPGPU-Sim uArch: core:  7, cta: 0 initialized @(1,0)
GPGPU-Sim uArch: Shader 8 bind to kernel 1 '_Z13aesEncrypt128PjS_i'
GPGPU-Sim uArch: core:  8, cta: 0 initialized @(1,0)
GPGPU-Sim uArch: Shader 9 bind to kernel 1 '_Z13aesEncrypt128PjS_i'
GPGPU-Sim uArch: core:  9, cta: 0 initialized @(1,0)
GPGPU-Sim uArch: Shader 10 bind to kernel 1 '_Z13aesEncrypt128PjS_i'
GPGPU-Sim uArch: core: 10, cta: 0 initialized @(1,0)
GPGPU-Sim uArch: Shader 11 bind to kernel 1 '_Z13aesEncrypt128PjS_i'
GPGPU-Sim uArch: core: 11, cta: 0 initialized @(1,0)
GPGPU-Sim uArch: Shader 12 bind to kernel 1 '_Z13aesEncrypt128PjS_i'
GPGPU-Sim uArch: core: 12, cta: 0 initialized @(1,0)
GPGPU-Sim uArch: Shader 13 bind to kernel 1 '_Z13aesEncrypt128PjS_i'
GPGPU-Sim uArch: core: 13, cta: 0 initialized @(1,0)
GPGPU-Sim uArch: Shader 14 bind to kernel 1 '_Z13aesEncrypt128PjS_i'
GPGPU-Sim uArch: core: 14, cta: 0 initialized @(1,0)
GPGPU-Sim uArch: Shader 0 bind to kernel 1 '_Z13aesEncrypt128PjS_i'
GPGPU-Sim uArch: core:  0, cta: 0 initialized @(1,0)
GPGPU-Sim uArch: core:  1, cta: 1 initialized @(2,0)
GPGPU-Sim uArch: core:  2, cta: 1 initialized @(2,0)
GPGPU-Sim uArch: core:  3, cta: 1 initialized @(2,0)
GPGPU-Sim uArch: core:  4, cta: 1 initialized @(2,0)
GPGPU-Sim uArch: core:  5, cta: 1 initialized @(2,0)
GPGPU-Sim uArch: core:  6, cta: 1 initialized @(2,0)
GPGPU-Sim uArch: core:  7, cta: 1 initialized @(2,0)
GPGPU-Sim uArch: core:  8, cta: 1 initialized @(2,0)
GPGPU-Sim uArch: core:  9, cta: 1 initialized @(2,0)
GPGPU-Sim uArch: core: 10, cta: 1 initialized @(2,0)
GPGPU-Sim uArch: core: 11, cta: 1 initialized @(2,0)
GPGPU-Sim uArch: core: 12, cta: 1 initialized @(2,0)
GPGPU-Sim uArch: core: 13, cta: 1 initialized @(2,0)
GPGPU-Sim uArch: core: 14, cta: 1 initialized @(2,0)
GPGPU-Sim uArch: core:  0, cta: 1 initialized @(2,0)
GPGPU-Sim uArch: core:  1, cta: 2 initialized @(3,0)
GPGPU-Sim uArch: core:  2, cta: 2 initialized @(3,0)
GPGPU-Sim uArch: core:  3, cta: 2 initialized @(3,0)
GPGPU-Sim uArch: core:  4, cta: 2 initialized @(3,0)
GPGPU-Sim uArch: core:  5, cta: 2 initialized @(3,0)
GPGPU-Sim uArch: core:  6, cta: 2 initialized @(3,0)
GPGPU-Sim uArch: core:  7, cta: 2 initialized @(3,0)
GPGPU-Sim uArch: core:  8, cta: 2 initialized @(3,0)
GPGPU-Sim uArch: core:  9, cta: 2 initialized @(3,0)
GPGPU-Sim uArch: core: 10, cta: 2 initialized @(3,0)
GPGPU-Sim uArch: core: 11, cta: 2 initialized @(3,0)
GPGPU-Sim uArch: core: 12, cta: 2 initialized @(3,0)
GPGPU-Sim uArch: core: 13, cta: 2 initialized @(3,0)
GPGPU-Sim uArch: core: 14, cta: 2 initialized @(3,0)
GPGPU-Sim uArch: core:  0, cta: 2 initialized @(3,0)
GPGPU-Sim uArch: core:  1, cta: 3 initialized @(4,0)
GPGPU-Sim uArch: core:  2, cta: 3 initialized @(4,0)
GPGPU-Sim uArch: core:  3, cta: 3 initialized @(4,0)
GPGPU-Sim uArch: core:  4, cta: 3 initialized @(4,0)
GPGPU-Sim uArch: core:  5, cta: 3 initialized @(4,0)
GPGPU-Sim uArch: core:  6, cta: 3 initialized @(4,0)
GPGPU-Sim uArch: core:  7, cta: 3 initialized @(4,0)
GPGPU-Sim uArch: core:  8, cta: 3 initialized @(4,0)
GPGPU-Sim uArch: core:  9, cta: 3 initialized @(4,0)
GPGPU-Sim uArch: core: 10, cta: 3 initialized @(4,0)
GPGPU-Sim uArch: core: 11, cta: 3 initialized @(4,0)
GPGPU-Sim uArch: core: 12, cta: 3 initialized @(4,0)
GPGPU-Sim uArch: core: 13, cta: 3 initialized @(4,0)
GPGPU-Sim uArch: core: 14, cta: 3 initialized @(4,0)
GPGPU-Sim uArch: core:  0, cta: 3 initialized @(4,0)
GPGPU-Sim uArch: core:  1, cta: 4 initialized @(5,0)
GPGPU-Sim uArch: core:  2, cta: 4 initialized @(5,0)
GPGPU-Sim uArch: core:  3, cta: 4 initialized @(5,0)
GPGPU-Sim uArch: core:  4, cta: 4 initialized @(5,0)
GPGPU-Sim uArch: core:  5, cta: 4 initialized @(5,0)
GPGPU-Sim uArch: core:  6, cta: 4 initialized @(5,0)
GPGPU-Sim uArch: core:  7, cta: 4 initialized @(5,0)
GPGPU-Sim uArch: core:  8, cta: 4 initialized @(5,0)
GPGPU-Sim uArch: core:  9, cta: 4 initialized @(5,0)
GPGPU-Sim uArch: core: 10, cta: 4 initialized @(5,0)
GPGPU-Sim uArch: core: 11, cta: 4 initialized @(5,0)
GPGPU-Sim uArch: core: 12, cta: 4 initialized @(5,0)
GPGPU-Sim uArch: core: 13, cta: 4 initialized @(5,0)
GPGPU-Sim uArch: core: 14, cta: 4 initialized @(5,0)
GPGPU-Sim uArch: core:  0, cta: 4 initialized @(5,0)
GPGPU-Sim uArch: core:  1, cta: 5 initialized @(6,0)
GPGPU-Sim uArch: core:  2, cta: 5 initialized @(6,0)
GPGPU-Sim uArch: core:  3, cta: 5 initialized @(6,0)
GPGPU-Sim uArch: core:  4, cta: 5 initialized @(6,0)
GPGPU-Sim uArch: core:  5, cta: 5 initialized @(6,0)
GPGPU-Sim uArch: core:  6, cta: 5 initialized @(6,0)
GPGPU-Sim uArch: core:  7, cta: 5 initialized @(6,0)
GPGPU-Sim uArch: core:  8, cta: 5 initialized @(6,0)
GPGPU-Sim uArch: core:  9, cta: 5 initialized @(6,0)
GPGPU-Sim uArch: core: 10, cta: 5 initialized @(6,0)
GPGPU-Sim uArch: core: 11, cta: 5 initialized @(6,0)
GPGPU-Sim uArch: core: 12, cta: 5 initialized @(6,0)
GPGPU-Sim uArch: core: 13, cta: 5 initialized @(6,0)
GPGPU-Sim uArch: core: 14, cta: 5 initialized @(6,0)
GPGPU-Sim uArch: core:  0, cta: 5 initialized @(6,0)
GPGPU-Sim uArch: cycles simulated: 500  inst.: 83168 (ipc=166.3) sim_rate=83168 (inst/sec) elapsed = 0:0:00:01 / Tue May 12 19:00:20 2015
GPGPU-Sim PTX: 100000 instructions simulated : ctaid=(18,0,0) tid=(255,0,0)
GPGPU-Sim PTX: 200000 instructions simulated : ctaid=(38,0,0) tid=(159,0,0)
GPGPU-Sim PTX: 300000 instructions simulated : ctaid=(73,0,0) tid=(159,0,0)
GPGPU-Sim uArch: cycles simulated: 1000  inst.: 322560 (ipc=322.6) sim_rate=107520 (inst/sec) elapsed = 0:0:00:03 / Tue May 12 19:00:22 2015
GPGPU-Sim uArch: cycles simulated: 1500  inst.: 382432 (ipc=255.0) sim_rate=76486 (inst/sec) elapsed = 0:0:00:05 / Tue May 12 19:00:24 2015
GPGPU-Sim PTX: 400000 instructions simulated : ctaid=(40,0,0) tid=(223,0,0)
GPGPU-Sim uArch: cycles simulated: 2000  inst.: 403360 (ipc=201.7) sim_rate=67226 (inst/sec) elapsed = 0:0:00:06 / Tue May 12 19:00:25 2015
GPGPU-Sim uArch: cycles simulated: 2500  inst.: 425888 (ipc=170.4) sim_rate=53236 (inst/sec) elapsed = 0:0:00:08 / Tue May 12 19:00:27 2015
GPGPU-Sim uArch: cycles simulated: 3000  inst.: 439104 (ipc=146.4) sim_rate=48789 (inst/sec) elapsed = 0:0:00:09 / Tue May 12 19:00:28 2015
GPGPU-Sim uArch: cycles simulated: 3500  inst.: 448096 (ipc=128.0) sim_rate=44809 (inst/sec) elapsed = 0:0:00:10 / Tue May 12 19:00:29 2015
GPGPU-Sim uArch: cycles simulated: 4000  inst.: 459136 (ipc=114.8) sim_rate=38261 (inst/sec) elapsed = 0:0:00:12 / Tue May 12 19:00:31 2015
GPGPU-Sim uArch: cycles simulated: 4500  inst.: 469376 (ipc=104.3) sim_rate=36105 (inst/sec) elapsed = 0:0:00:13 / Tue May 12 19:00:32 2015
GPGPU-Sim uArch: cycles simulated: 5000  inst.: 486944 (ipc=97.4) sim_rate=34781 (inst/sec) elapsed = 0:0:00:14 / Tue May 12 19:00:33 2015
GPGPU-Sim PTX: 500000 instructions simulated : ctaid=(61,0,0) tid=(255,0,0)
GPGPU-Sim uArch: cycles simulated: 5500  inst.: 513728 (ipc=93.4) sim_rate=32108 (inst/sec) elapsed = 0:0:00:16 / Tue May 12 19:00:35 2015
GPGPU-Sim uArch: cycles simulated: 6000  inst.: 550016 (ipc=91.7) sim_rate=32353 (inst/sec) elapsed = 0:0:00:17 / Tue May 12 19:00:36 2015
GPGPU-Sim PTX: 600000 instructions simulated : ctaid=(47,0,0) tid=(159,0,0)
GPGPU-Sim uArch: cycles simulated: 6500  inst.: 676032 (ipc=104.0) sim_rate=35580 (inst/sec) elapsed = 0:0:00:19 / Tue May 12 19:00:38 2015
GPGPU-Sim PTX: 700000 instructions simulated : ctaid=(5,0,0) tid=(127,0,0)
GPGPU-Sim PTX: 800000 instructions simulated : ctaid=(11,0,0) tid=(255,0,0)
GPGPU-Sim PTX: 900000 instructions simulated : ctaid=(48,0,0) tid=(191,0,0)
GPGPU-Sim uArch: cycles simulated: 7000  inst.: 902656 (ipc=129.0) sim_rate=42983 (inst/sec) elapsed = 0:0:00:21 / Tue May 12 19:00:40 2015
GPGPU-Sim PTX: 1000000 instructions simulated : ctaid=(32,0,0) tid=(127,0,0)
GPGPU-Sim PTX: 1100000 instructions simulated : ctaid=(84,0,0) tid=(127,0,0)
GPGPU-Sim uArch: cycles simulated: 7500  inst.: 1135840 (ipc=151.4) sim_rate=49384 (inst/sec) elapsed = 0:0:00:23 / Tue May 12 19:00:42 2015
GPGPU-Sim PTX: 1200000 instructions simulated : ctaid=(63,0,0) tid=(63,0,0)
GPGPU-Sim PTX: 1300000 instructions simulated : ctaid=(8,0,0) tid=(31,0,0)
GPGPU-Sim uArch: cycles simulated: 8000  inst.: 1378176 (ipc=172.3) sim_rate=55127 (inst/sec) elapsed = 0:0:00:25 / Tue May 12 19:00:44 2015
GPGPU-Sim PTX: 1400000 instructions simulated : ctaid=(28,0,0) tid=(159,0,0)
GPGPU-Sim PTX: 1500000 instructions simulated : ctaid=(3,0,0) tid=(223,0,0)
GPGPU-Sim PTX: 1600000 instructions simulated : ctaid=(23,0,0) tid=(223,0,0)
GPGPU-Sim uArch: cycles simulated: 8500  inst.: 1618816 (ipc=190.4) sim_rate=59956 (inst/sec) elapsed = 0:0:00:27 / Tue May 12 19:00:46 2015
GPGPU-Sim PTX: 1700000 instructions simulated : ctaid=(16,0,0) tid=(159,0,0)
GPGPU-Sim PTX: 1800000 instructions simulated : ctaid=(66,0,0) tid=(127,0,0)
GPGPU-Sim uArch: cycles simulated: 9000  inst.: 1858400 (ipc=206.5) sim_rate=64082 (inst/sec) elapsed = 0:0:00:29 / Tue May 12 19:00:48 2015
GPGPU-Sim PTX: 1900000 instructions simulated : ctaid=(16,0,0) tid=(95,0,0)
GPGPU-Sim PTX: 2000000 instructions simulated : ctaid=(6,0,0) tid=(159,0,0)
GPGPU-Sim PTX: 2100000 instructions simulated : ctaid=(76,0,0) tid=(127,0,0)
GPGPU-Sim uArch: cycles simulated: 9500  inst.: 2098048 (ipc=220.8) sim_rate=67678 (inst/sec) elapsed = 0:0:00:31 / Tue May 12 19:00:50 2015
GPGPU-Sim PTX: 2200000 instructions simulated : ctaid=(23,0,0) tid=(191,0,0)
GPGPU-Sim PTX: 2300000 instructions simulated : ctaid=(20,0,0) tid=(31,0,0)
GPGPU-Sim uArch: cycles simulated: 10000  inst.: 2336768 (ipc=233.7) sim_rate=70811 (inst/sec) elapsed = 0:0:00:33 / Tue May 12 19:00:52 2015
GPGPU-Sim PTX: 2400000 instructions simulated : ctaid=(30,0,0) tid=(63,0,0)
GPGPU-Sim PTX: 2500000 instructions simulated : ctaid=(22,0,0) tid=(95,0,0)
GPGPU-Sim uArch: cycles simulated: 10500  inst.: 2575904 (ipc=245.3) sim_rate=73597 (inst/sec) elapsed = 0:0:00:35 / Tue May 12 19:00:54 2015
GPGPU-Sim PTX: 2600000 instructions simulated : ctaid=(17,0,0) tid=(255,0,0)
GPGPU-Sim PTX: 2700000 instructions simulated : ctaid=(24,0,0) tid=(95,0,0)
GPGPU-Sim PTX: 2800000 instructions simulated : ctaid=(27,0,0) tid=(159,0,0)
GPGPU-Sim uArch: cycles simulated: 11000  inst.: 2814432 (ipc=255.9) sim_rate=76065 (inst/sec) elapsed = 0:0:00:37 / Tue May 12 19:00:56 2015
GPGPU-Sim PTX: 2900000 instructions simulated : ctaid=(68,0,0) tid=(63,0,0)
GPGPU-Sim PTX: 3000000 instructions simulated : ctaid=(36,0,0) tid=(159,0,0)
GPGPU-Sim uArch: cycles simulated: 11500  inst.: 3052704 (ipc=265.5) sim_rate=78274 (inst/sec) elapsed = 0:0:00:39 / Tue May 12 19:00:58 2015
GPGPU-Sim PTX: 3100000 instructions simulated : ctaid=(12,0,0) tid=(127,0,0)
GPGPU-Sim PTX: 3200000 instructions simulated : ctaid=(57,0,0) tid=(223,0,0)
GPGPU-Sim uArch: cycles simulated: 12000  inst.: 3291296 (ipc=274.3) sim_rate=80275 (inst/sec) elapsed = 0:0:00:41 / Tue May 12 19:01:00 2015
GPGPU-Sim PTX: 3300000 instructions simulated : ctaid=(29,0,0) tid=(191,0,0)
GPGPU-Sim PTX: 3400000 instructions simulated : ctaid=(68,0,0) tid=(31,0,0)
GPGPU-Sim PTX: 3500000 instructions simulated : ctaid=(52,0,0) tid=(159,0,0)
GPGPU-Sim uArch: cycles simulated: 12500  inst.: 3531200 (ipc=282.5) sim_rate=82120 (inst/sec) elapsed = 0:0:00:43 / Tue May 12 19:01:02 2015
GPGPU-Sim PTX: 3600000 instructions simulated : ctaid=(80,0,0) tid=(127,0,0)
GPGPU-Sim PTX: 3700000 instructions simulated : ctaid=(80,0,0) tid=(95,0,0)
GPGPU-Sim uArch: cycles simulated: 13000  inst.: 3769248 (ipc=289.9) sim_rate=81940 (inst/sec) elapsed = 0:0:00:46 / Tue May 12 19:01:05 2015
GPGPU-Sim PTX: 3800000 instructions simulated : ctaid=(12,0,0) tid=(63,0,0)
GPGPU-Sim PTX: 3900000 instructions simulated : ctaid=(26,0,0) tid=(63,0,0)
GPGPU-Sim PTX: 4000000 instructions simulated : ctaid=(78,0,0) tid=(127,0,0)
GPGPU-Sim uArch: cycles simulated: 13500  inst.: 4007232 (ipc=296.8) sim_rate=83484 (inst/sec) elapsed = 0:0:00:48 / Tue May 12 19:01:07 2015
GPGPU-Sim PTX: 4100000 instructions simulated : ctaid=(40,0,0) tid=(127,0,0)
GPGPU-Sim PTX: 4200000 instructions simulated : ctaid=(17,0,0) tid=(159,0,0)
GPGPU-Sim uArch: cycles simulated: 14000  inst.: 4245056 (ipc=303.2) sim_rate=84901 (inst/sec) elapsed = 0:0:00:50 / Tue May 12 19:01:09 2015
GPGPU-Sim PTX: 4300000 instructions simulated : ctaid=(16,0,0) tid=(63,0,0)
GPGPU-Sim PTX: 4400000 instructions simulated : ctaid=(1,0,0) tid=(159,0,0)
GPGPU-Sim uArch: cycles simulated: 14500  inst.: 4484384 (ipc=309.3) sim_rate=86238 (inst/sec) elapsed = 0:0:00:52 / Tue May 12 19:01:11 2015
GPGPU-Sim PTX: 4500000 instructions simulated : ctaid=(32,0,0) tid=(31,0,0)
GPGPU-Sim PTX: 4600000 instructions simulated : ctaid=(7,0,0) tid=(159,0,0)
GPGPU-Sim PTX: 4700000 instructions simulated : ctaid=(4,0,0) tid=(31,0,0)
GPGPU-Sim uArch: cycles simulated: 15000  inst.: 4722112 (ipc=314.8) sim_rate=87446 (inst/sec) elapsed = 0:0:00:54 / Tue May 12 19:01:13 2015
GPGPU-Sim PTX: 4800000 instructions simulated : ctaid=(0,0,0) tid=(255,0,0)
GPGPU-Sim PTX: 4900000 instructions simulated : ctaid=(69,0,0) tid=(191,0,0)
GPGPU-Sim uArch: cycles simulated: 15500  inst.: 4960128 (ipc=320.0) sim_rate=88573 (inst/sec) elapsed = 0:0:00:56 / Tue May 12 19:01:15 2015
GPGPU-Sim PTX: 5000000 instructions simulated : ctaid=(51,0,0) tid=(223,0,0)
GPGPU-Sim PTX: 5100000 instructions simulated : ctaid=(84,0,0) tid=(223,0,0)
GPGPU-Sim PTX: 5200000 instructions simulated : ctaid=(84,0,0) tid=(223,0,0)
GPGPU-Sim uArch: cycles simulated: 16000  inst.: 5198944 (ipc=324.9) sim_rate=89636 (inst/sec) elapsed = 0:0:00:58 / Tue May 12 19:01:17 2015
GPGPU-Sim PTX: 5300000 instructions simulated : ctaid=(67,0,0) tid=(255,0,0)
GPGPU-Sim PTX: 5400000 instructions simulated : ctaid=(76,0,0) tid=(31,0,0)
GPGPU-Sim uArch: cycles simulated: 16500  inst.: 5437696 (ipc=329.6) sim_rate=90628 (inst/sec) elapsed = 0:0:01:00 / Tue May 12 19:01:19 2015
GPGPU-Sim PTX: 5500000 instructions simulated : ctaid=(29,0,0) tid=(31,0,0)
GPGPU-Sim PTX: 5600000 instructions simulated : ctaid=(87,0,0) tid=(127,0,0)
GPGPU-Sim uArch: cycles simulated: 17000  inst.: 5676128 (ipc=333.9) sim_rate=91550 (inst/sec) elapsed = 0:0:01:02 / Tue May 12 19:01:21 2015
GPGPU-Sim PTX: 5700000 instructions simulated : ctaid=(28,0,0) tid=(63,0,0)
GPGPU-Sim PTX: 5800000 instructions simulated : ctaid=(42,0,0) tid=(127,0,0)
GPGPU-Sim PTX: 5900000 instructions simulated : ctaid=(18,0,0) tid=(223,0,0)
GPGPU-Sim uArch: cycles simulated: 17500  inst.: 5915424 (ipc=338.0) sim_rate=92428 (inst/sec) elapsed = 0:0:01:04 / Tue May 12 19:01:23 2015
GPGPU-Sim PTX: 6000000 instructions simulated : ctaid=(76,0,0) tid=(159,0,0)
GPGPU-Sim PTX: 6100000 instructions simulated : ctaid=(20,0,0) tid=(127,0,0)
GPGPU-Sim uArch: cycles simulated: 18000  inst.: 6153792 (ipc=341.9) sim_rate=93239 (inst/sec) elapsed = 0:0:01:06 / Tue May 12 19:01:25 2015
GPGPU-Sim PTX: 6200000 instructions simulated : ctaid=(14,0,0) tid=(127,0,0)
GPGPU-Sim uArch: Shader 1 finished CTA #2 (18096,0), 5 CTAs running
GPGPU-Sim uArch: core:  1, cta: 2 initialized @(18097,0)
GPGPU-Sim uArch: Shader 4 finished CTA #1 (18142,0), 5 CTAs running
GPGPU-Sim uArch: core:  4, cta: 1 initialized @(18143,0)
GPGPU-Sim uArch: Shader 8 finished CTA #1 (18220,0), 5 CTAs running
GPGPU-Sim uArch: core:  8, cta: 1 initialized @(18221,0)
GPGPU-Sim uArch: Shader 0 finished CTA #1 (18254,0), 5 CTAs running
GPGPU-Sim uArch: core:  0, cta: 1 initialized @(18255,0)
GPGPU-Sim uArch: Shader 7 finished CTA #1 (18297,0), 5 CTAs running
GPGPU-Sim PTX: 6300000 instructions simulated : ctaid=(7,0,0) tid=(95,0,0)
GPGPU-Sim uArch: core:  7, cta: 1 initialized @(18298,0)
GPGPU-Sim uArch: cycles simulated: 18500  inst.: 6391328 (ipc=345.5) sim_rate=93990 (inst/sec) elapsed = 0:0:01:08 / Tue May 12 19:01:27 2015
GPGPU-Sim PTX: 6400000 instructions simulated : ctaid=(50,0,0) tid=(31,0,0)
GPGPU-Sim uArch: Shader 10 finished CTA #1 (18553,0), 5 CTAs running
GPGPU-Sim uArch: core: 10, cta: 1 initialized @(18554,0)
GPGPU-Sim uArch: Shader 14 finished CTA #1 (18661,0), 5 CTAs running
GPGPU-Sim uArch: core: 14, cta: 1 initialized @(18662,0)
GPGPU-Sim uArch: Shader 9 finished CTA #1 (18715,0), 5 CTAs running
GPGPU-Sim uArch: core:  9, cta: 1 initialized @(18716,0)
GPGPU-Sim PTX: 6500000 instructions simulated : ctaid=(41,0,0) tid=(31,0,0)
GPGPU-Sim uArch: Shader 8 finished CTA #0 (18859,0), 5 CTAs running
GPGPU-Sim uArch: core:  8, cta: 0 initialized @(18860,0)
GPGPU-Sim PTX: 6600000 instructions simulated : ctaid=(0,0,0) tid=(255,0,0)
GPGPU-Sim uArch: cycles simulated: 19000  inst.: 6630624 (ipc=349.0) sim_rate=94723 (inst/sec) elapsed = 0:0:01:10 / Tue May 12 19:01:29 2015
GPGPU-Sim uArch: Shader 6 finished CTA #1 (19022,0), 5 CTAs running
GPGPU-Sim uArch: core:  6, cta: 1 initialized @(19023,0)
GPGPU-Sim PTX: 6700000 instructions simulated : ctaid=(65,0,0) tid=(191,0,0)
GPGPU-Sim uArch: Shader 6 finished CTA #5 (19231,0), 5 CTAs running
GPGPU-Sim uArch: core:  6, cta: 5 initialized @(19232,0)
GPGPU-Sim PTX: 6800000 instructions simulated : ctaid=(17,0,0) tid=(255,0,0)
GPGPU-Sim uArch: cycles simulated: 19500  inst.: 6869344 (ipc=352.3) sim_rate=95407 (inst/sec) elapsed = 0:0:01:12 / Tue May 12 19:01:31 2015
GPGPU-Sim PTX: 6900000 instructions simulated : ctaid=(35,0,0) tid=(31,0,0)
GPGPU-Sim uArch: Shader 5 finished CTA #1 (19619,0), 5 CTAs running
GPGPU-Sim uArch: core:  5, cta: 1 initialized @(19620,0)
GPGPU-Sim uArch: Shader 5 finished CTA #2 (19655,0), 5 CTAs running
GPGPU-Sim uArch: core:  5, cta: 2 initialized @(19656,0)
GPGPU-Sim uArch: Shader 1 finished CTA #0 (19706,0), 5 CTAs running
GPGPU-Sim uArch: core:  1, cta: 0 initialized @(19707,0)
GPGPU-Sim uArch: Shader 11 finished CTA #1 (19733,0), 5 CTAs running
GPGPU-Sim uArch: core: 11, cta: 1 initialized @(19734,0)
GPGPU-Sim uArch: Shader 11 finished CTA #2 (19742,0), 5 CTAs running
GPGPU-Sim uArch: core: 11, cta: 2 initialized @(19743,0)
GPGPU-Sim PTX: 7000000 instructions simulated : ctaid=(87,0,0) tid=(31,0,0)
GPGPU-Sim PTX: 7100000 instructions simulated : ctaid=(85,0,0) tid=(95,0,0)
GPGPU-Sim uArch: cycles simulated: 20000  inst.: 7107904 (ipc=355.4) sim_rate=96052 (inst/sec) elapsed = 0:0:01:14 / Tue May 12 19:01:33 2015
GPGPU-Sim uArch: Shader 2 finished CTA #1 (20020,0), 5 CTAs running
GPGPU-Sim uArch: core:  2, cta: 1 initialized @(20021,0)
GPGPU-Sim PTX: 7200000 instructions simulated : ctaid=(77,0,0) tid=(31,0,0)
GPGPU-Sim PTX: 7300000 instructions simulated : ctaid=(89,0,0) tid=(159,0,0)
GPGPU-Sim uArch: cycles simulated: 20500  inst.: 7346656 (ipc=358.4) sim_rate=96666 (inst/sec) elapsed = 0:0:01:16 / Tue May 12 19:01:35 2015
GPGPU-Sim PTX: 7400000 instructions simulated : ctaid=(91,0,0) tid=(159,0,0)
GPGPU-Sim uArch: Shader 7 finished CTA #0 (20706,0), 5 CTAs running
GPGPU-Sim uArch: core:  7, cta: 0 initialized @(20707,0)
GPGPU-Sim PTX: 7500000 instructions simulated : ctaid=(4,0,0) tid=(191,0,0)
GPGPU-Sim uArch: Shader 12 finished CTA #1 (20977,0), 5 CTAs running
GPGPU-Sim uArch: core: 12, cta: 1 initialized @(20978,0)
GPGPU-Sim uArch: cycles simulated: 21000  inst.: 7586880 (ipc=361.3) sim_rate=97267 (inst/sec) elapsed = 0:0:01:18 / Tue May 12 19:01:37 2015
GPGPU-Sim PTX: 7600000 instructions simulated : ctaid=(43,0,0) tid=(63,0,0)
GPGPU-Sim PTX: 7700000 instructions simulated : ctaid=(41,0,0) tid=(191,0,0)
GPGPU-Sim PTX: 7800000 instructions simulated : ctaid=(41,0,0) tid=(63,0,0)
GPGPU-Sim uArch: cycles simulated: 21500  inst.: 7825568 (ipc=364.0) sim_rate=96611 (inst/sec) elapsed = 0:0:01:21 / Tue May 12 19:01:40 2015
GPGPU-Sim PTX: 7900000 instructions simulated : ctaid=(62,0,0) tid=(63,0,0)
GPGPU-Sim uArch: Shader 4 finished CTA #5 (21682,0), 5 CTAs running
GPGPU-Sim uArch: core:  4, cta: 5 initialized @(21683,0)
GPGPU-Sim uArch: Shader 4 finished CTA #0 (21693,0), 5 CTAs running
GPGPU-Sim uArch: core:  4, cta: 0 initialized @(21694,0)
GPGPU-Sim uArch: Shader 13 finished CTA #5 (21843,0), 5 CTAs running
GPGPU-Sim uArch: core: 13, cta: 5 initialized @(21844,0)
GPGPU-Sim PTX: 8000000 instructions simulated : ctaid=(63,0,0) tid=(95,0,0)
GPGPU-Sim uArch: Shader 3 finished CTA #1 (21869,0), 5 CTAs running
GPGPU-Sim uArch: core:  3, cta: 1 initialized @(21870,0)
GPGPU-Sim uArch: cycles simulated: 22000  inst.: 8063520 (ipc=366.5) sim_rate=97150 (inst/sec) elapsed = 0:0:01:23 / Tue May 12 19:01:42 2015
GPGPU-Sim PTX: 8100000 instructions simulated : ctaid=(43,0,0) tid=(223,0,0)
GPGPU-Sim uArch: Shader 14 finished CTA #0 (22172,0), 5 CTAs running
GPGPU-Sim uArch: core: 14, cta: 0 initialized @(22173,0)
GPGPU-Sim PTX: 8200000 instructions simulated : ctaid=(85,0,0) tid=(95,0,0)
GPGPU-Sim PTX: 8300000 instructions simulated : ctaid=(106,0,0) tid=(95,0,0)
GPGPU-Sim uArch: cycles simulated: 22500  inst.: 8303808 (ipc=369.1) sim_rate=97691 (inst/sec) elapsed = 0:0:01:25 / Tue May 12 19:01:44 2015
GPGPU-Sim PTX: 8400000 instructions simulated : ctaid=(90,0,0) tid=(159,0,0)
GPGPU-Sim PTX: 8500000 instructions simulated : ctaid=(31,0,0) tid=(223,0,0)
GPGPU-Sim uArch: Shader 3 finished CTA #5 (22912,0), 5 CTAs running
GPGPU-Sim uArch: core:  3, cta: 5 initialized @(22913,0)
GPGPU-Sim uArch: Shader 13 finished CTA #1 (22979,0), 5 CTAs running
GPGPU-Sim uArch: core: 13, cta: 1 initialized @(22980,0)
GPGPU-Sim uArch: cycles simulated: 23000  inst.: 8542432 (ipc=371.4) sim_rate=98188 (inst/sec) elapsed = 0:0:01:27 / Tue May 12 19:01:46 2015
GPGPU-Sim PTX: 8600000 instructions simulated : ctaid=(35,0,0) tid=(255,0,0)
GPGPU-Sim uArch: Shader 10 finished CTA #5 (23156,0), 5 CTAs running
GPGPU-Sim uArch: core: 10, cta: 5 initialized @(23157,0)
GPGPU-Sim PTX: 8700000 instructions simulated : ctaid=(106,0,0) tid=(31,0,0)
GPGPU-Sim uArch: cycles simulated: 23500  inst.: 8781952 (ipc=373.7) sim_rate=98673 (inst/sec) elapsed = 0:0:01:29 / Tue May 12 19:01:48 2015
GPGPU-Sim PTX: 8800000 instructions simulated : ctaid=(35,0,0) tid=(255,0,0)
GPGPU-Sim PTX: 8900000 instructions simulated : ctaid=(75,0,0) tid=(159,0,0)
GPGPU-Sim uArch: Shader 0 finished CTA #0 (23884,0), 5 CTAs running
GPGPU-Sim uArch: core:  0, cta: 0 initialized @(23885,0)
GPGPU-Sim PTX: 9000000 instructions simulated : ctaid=(108,0,0) tid=(255,0,0)
GPGPU-Sim uArch: cycles simulated: 24000  inst.: 9021088 (ipc=375.9) sim_rate=99132 (inst/sec) elapsed = 0:0:01:31 / Tue May 12 19:01:50 2015
GPGPU-Sim uArch: Shader 12 finished CTA #2 (24152,0), 5 CTAs running
GPGPU-Sim uArch: core: 12, cta: 2 initialized @(24153,0)
GPGPU-Sim PTX: 9100000 instructions simulated : ctaid=(104,0,0) tid=(31,0,0)
GPGPU-Sim PTX: 9200000 instructions simulated : ctaid=(73,0,0) tid=(159,0,0)
GPGPU-Sim uArch: cycles simulated: 24500  inst.: 9260416 (ipc=378.0) sim_rate=99574 (inst/sec) elapsed = 0:0:01:33 / Tue May 12 19:01:52 2015
GPGPU-Sim PTX: 9300000 instructions simulated : ctaid=(98,0,0) tid=(95,0,0)
GPGPU-Sim PTX: 9400000 instructions simulated : ctaid=(114,0,0) tid=(159,0,0)
GPGPU-Sim PTX: 9500000 instructions simulated : ctaid=(113,0,0) tid=(127,0,0)
GPGPU-Sim uArch: cycles simulated: 25000  inst.: 9500672 (ipc=380.0) sim_rate=100007 (inst/sec) elapsed = 0:0:01:35 / Tue May 12 19:01:54 2015
GPGPU-Sim PTX: 9600000 instructions simulated : ctaid=(92,0,0) tid=(63,0,0)
GPGPU-Sim PTX: 9700000 instructions simulated : ctaid=(111,0,0) tid=(191,0,0)
GPGPU-Sim uArch: cycles simulated: 25500  inst.: 9739648 (ipc=381.9) sim_rate=100408 (inst/sec) elapsed = 0:0:01:37 / Tue May 12 19:01:56 2015
GPGPU-Sim uArch: Shader 5 finished CTA #0 (25570,0), 5 CTAs running
GPGPU-Sim uArch: core:  5, cta: 0 initialized @(25571,0)
GPGPU-Sim PTX: 9800000 instructions simulated : ctaid=(96,0,0) tid=(223,0,0)
GPGPU-Sim uArch: Shader 12 finished CTA #5 (25800,0), 5 CTAs running
GPGPU-Sim uArch: core: 12, cta: 5 initialized @(25801,0)
GPGPU-Sim PTX: 9900000 instructions simulated : ctaid=(103,0,0) tid=(95,0,0)
GPGPU-Sim uArch: cycles simulated: 26000  inst.: 9979136 (ipc=383.8) sim_rate=100799 (inst/sec) elapsed = 0:0:01:39 / Tue May 12 19:01:58 2015
GPGPU-Sim PTX: 10000000 instructions simulated : ctaid=(83,0,0) tid=(159,0,0)
GPGPU-Sim PTX: 10100000 instructions simulated : ctaid=(91,0,0) tid=(191,0,0)
GPGPU-Sim PTX: 10200000 instructions simulated : ctaid=(43,0,0) tid=(95,0,0)
GPGPU-Sim uArch: Shader 2 finished CTA #5 (26488,0), 5 CTAs running
GPGPU-Sim uArch: core:  2, cta: 5 initialized @(26489,0)
GPGPU-Sim uArch: Shader 2 finished CTA #0 (26497,0), 5 CTAs running
GPGPU-Sim uArch: core:  2, cta: 0 initialized @(26498,0)
GPGPU-Sim uArch: cycles simulated: 26500  inst.: 10218560 (ipc=385.6) sim_rate=101173 (inst/sec) elapsed = 0:0:01:41 / Tue May 12 19:02:00 2015
GPGPU-Sim PTX: 10300000 instructions simulated : ctaid=(15,0,0) tid=(63,0,0)
GPGPU-Sim uArch: Shader 9 finished CTA #0 (26725,0), 5 CTAs running
GPGPU-Sim uArch: core:  9, cta: 0 initialized @(26726,0)
GPGPU-Sim uArch: Shader 8 finished CTA #1 (26800,0), 5 CTAs running
GPGPU-Sim uArch: core:  8, cta: 1 initialized @(26801,0)
GPGPU-Sim PTX: 10400000 instructions simulated : ctaid=(94,0,0) tid=(31,0,0)
GPGPU-Sim uArch: cycles simulated: 27000  inst.: 10457024 (ipc=387.3) sim_rate=101524 (inst/sec) elapsed = 0:0:01:43 / Tue May 12 19:02:02 2015
GPGPU-Sim PTX: 10500000 instructions simulated : ctaid=(105,0,0) tid=(63,0,0)
GPGPU-Sim uArch: Shader 8 finished CTA #0 (27233,0), 5 CTAs running
GPGPU-Sim uArch: core:  8, cta: 0 initialized @(27234,0)
GPGPU-Sim PTX: 10600000 instructions simulated : ctaid=(31,0,0) tid=(191,0,0)
GPGPU-Sim uArch: cycles simulated: 27500  inst.: 10694592 (ipc=388.9) sim_rate=101853 (inst/sec) elapsed = 0:0:01:45 / Tue May 12 19:02:04 2015
GPGPU-Sim PTX: 10700000 instructions simulated : ctaid=(113,0,0) tid=(255,0,0)
GPGPU-Sim uArch: Shader 9 finished CTA #1 (27594,0), 5 CTAs running
GPGPU-Sim uArch: core:  9, cta: 1 initialized @(27595,0)
GPGPU-Sim PTX: 10800000 instructions simulated : ctaid=(104,0,0) tid=(255,0,0)
GPGPU-Sim uArch: Shader 7 finished CTA #1 (27759,0), 5 CTAs running
GPGPU-Sim uArch: core:  7, cta: 1 initialized @(27760,0)
GPGPU-Sim uArch: Shader 11 finished CTA #5 (27846,0), 5 CTAs running
GPGPU-Sim uArch: core: 11, cta: 5 initialized @(27847,0)
GPGPU-Sim PTX: 10900000 instructions simulated : ctaid=(113,0,0) tid=(191,0,0)
GPGPU-Sim uArch: Shader 7 finished CTA #2 (27972,0), 5 CTAs running
GPGPU-Sim uArch: core:  7, cta: 2 initialized @(27973,0)
GPGPU-Sim uArch: cycles simulated: 28000  inst.: 10933600 (ipc=390.5) sim_rate=102183 (inst/sec) elapsed = 0:0:01:47 / Tue May 12 19:02:06 2015
GPGPU-Sim PTX: 11000000 instructions simulated : ctaid=(100,0,0) tid=(159,0,0)
GPGPU-Sim PTX: 11100000 instructions simulated : ctaid=(114,0,0) tid=(223,0,0)
GPGPU-Sim uArch: cycles simulated: 28500  inst.: 11173536 (ipc=392.1) sim_rate=102509 (inst/sec) elapsed = 0:0:01:49 / Tue May 12 19:02:08 2015
GPGPU-Sim PTX: 11200000 instructions simulated : ctaid=(88,0,0) tid=(191,0,0)
GPGPU-Sim uArch: Shader 14 finished CTA #1 (28562,0), 5 CTAs running
GPGPU-Sim uArch: core: 14, cta: 1 initialized @(28563,0)
GPGPU-Sim PTX: 11300000 instructions simulated : ctaid=(105,0,0) tid=(255,0,0)
GPGPU-Sim uArch: Shader 0 finished CTA #1 (28794,0), 5 CTAs running
GPGPU-Sim uArch: core:  0, cta: 1 initialized @(28795,0)
GPGPU-Sim PTX: 11400000 instructions simulated : ctaid=(108,0,0) tid=(159,0,0)
GPGPU-Sim uArch: cycles simulated: 29000  inst.: 11413056 (ipc=393.6) sim_rate=101902 (inst/sec) elapsed = 0:0:01:52 / Tue May 12 19:02:11 2015
GPGPU-Sim uArch: Shader 0 finished CTA #2 (29006,0), 5 CTAs running
GPGPU-Sim uArch: core:  0, cta: 2 initialized @(29007,0)
GPGPU-Sim PTX: 11500000 instructions simulated : ctaid=(115,0,0) tid=(191,0,0)
GPGPU-Sim uArch: Shader 3 finished CTA #0 (29275,0), 5 CTAs running
GPGPU-Sim uArch: core:  3, cta: 0 initialized @(29276,0)
GPGPU-Sim uArch: Shader 2 finished CTA #2 (29328,0), 5 CTAs running
GPGPU-Sim uArch: core:  2, cta: 2 initialized @(29329,0)
GPGPU-Sim PTX: 11600000 instructions simulated : ctaid=(134,0,0) tid=(127,0,0)
GPGPU-Sim uArch: cycles simulated: 29500  inst.: 11650912 (ipc=394.9) sim_rate=102200 (inst/sec) elapsed = 0:0:01:54 / Tue May 12 19:02:13 2015
GPGPU-Sim uArch: Shader 2 finished CTA #1 (29570,0), 5 CTAs running
GPGPU-Sim uArch: core:  2, cta: 1 initialized @(29571,0)
GPGPU-Sim PTX: 11700000 instructions simulated : ctaid=(123,0,0) tid=(223,0,0)
GPGPU-Sim PTX: 11800000 instructions simulated : ctaid=(128,0,0) tid=(191,0,0)
GPGPU-Sim uArch: cycles simulated: 30000  inst.: 11890816 (ipc=396.4) sim_rate=102507 (inst/sec) elapsed = 0:0:01:56 / Tue May 12 19:02:15 2015
GPGPU-Sim PTX: 11900000 instructions simulated : ctaid=(109,0,0) tid=(191,0,0)
GPGPU-Sim PTX: 12000000 instructions simulated : ctaid=(117,0,0) tid=(159,0,0)
GPGPU-Sim PTX: 12100000 instructions simulated : ctaid=(91,0,0) tid=(127,0,0)
GPGPU-Sim uArch: Shader 6 finished CTA #1 (30433,0), 5 CTAs running
GPGPU-Sim uArch: core:  6, cta: 1 initialized @(30434,0)
GPGPU-Sim uArch: cycles simulated: 30500  inst.: 12130336 (ipc=397.7) sim_rate=102799 (inst/sec) elapsed = 0:0:01:58 / Tue May 12 19:02:17 2015
GPGPU-Sim PTX: 12200000 instructions simulated : ctaid=(134,0,0) tid=(255,0,0)
GPGPU-Sim uArch: Shader 6 finished CTA #2 (30656,0), 5 CTAs running
GPGPU-Sim uArch: core:  6, cta: 2 initialized @(30657,0)
GPGPU-Sim uArch: Shader 13 finished CTA #5 (30725,0), 5 CTAs running
GPGPU-Sim uArch: core: 13, cta: 5 initialized @(30726,0)
GPGPU-Sim uArch: Shader 6 finished CTA #5 (30739,0), 5 CTAs running
GPGPU-Sim uArch: core:  6, cta: 5 initialized @(30740,0)
GPGPU-Sim uArch: Shader 1 finished CTA #2 (30793,0), 5 CTAs running
GPGPU-Sim uArch: core:  1, cta: 2 initialized @(30794,0)
GPGPU-Sim PTX: 12300000 instructions simulated : ctaid=(103,0,0) tid=(95,0,0)
GPGPU-Sim uArch: cycles simulated: 31000  inst.: 12368960 (ipc=399.0) sim_rate=103074 (inst/sec) elapsed = 0:0:02:00 / Tue May 12 19:02:19 2015
GPGPU-Sim PTX: 12400000 instructions simulated : ctaid=(115,0,0) tid=(191,0,0)
GPGPU-Sim uArch: Shader 3 finished CTA #5 (31203,0), 5 CTAs running
GPGPU-Sim uArch: core:  3, cta: 5 initialized @(31204,0)
GPGPU-Sim PTX: 12500000 instructions simulated : ctaid=(64,0,0) tid=(159,0,0)
GPGPU-Sim uArch: Shader 13 finished CTA #0 (31381,0), 5 CTAs running
GPGPU-Sim uArch: core: 13, cta: 0 initialized @(31382,0)
GPGPU-Sim uArch: Shader 1 finished CTA #5 (31472,0), 5 CTAs running
GPGPU-Sim uArch: core:  1, cta: 5 initialized @(31473,0)
GPGPU-Sim PTX: 12600000 instructions simulated : ctaid=(110,0,0) tid=(127,0,0)
GPGPU-Sim uArch: cycles simulated: 31500  inst.: 12607200 (ipc=400.2) sim_rate=103337 (inst/sec) elapsed = 0:0:02:02 / Tue May 12 19:02:21 2015
GPGPU-Sim uArch: Shader 1 finished CTA #0 (31568,0), 5 CTAs running
GPGPU-Sim uArch: core:  1, cta: 0 initialized @(31569,0)
GPGPU-Sim PTX: 12700000 instructions simulated : ctaid=(136,0,0) tid=(63,0,0)
GPGPU-Sim uArch: Shader 5 finished CTA #1 (31812,0), 5 CTAs running
GPGPU-Sim uArch: core:  5, cta: 1 initialized @(31813,0)
GPGPU-Sim uArch: Shader 5 finished CTA #2 (31834,0), 5 CTAs running
GPGPU-Sim uArch: core:  5, cta: 2 initialized @(31835,0)
GPGPU-Sim uArch: Shader 10 finished CTA #5 (31867,0), 5 CTAs running
GPGPU-Sim uArch: core: 10, cta: 5 initialized @(31868,0)
GPGPU-Sim uArch: Shader 10 finished CTA #1 (31887,0), 5 CTAs running
GPGPU-Sim uArch: core: 10, cta: 1 initialized @(31888,0)
GPGPU-Sim PTX: 12800000 instructions simulated : ctaid=(132,0,0) tid=(127,0,0)
GPGPU-Sim uArch: cycles simulated: 32000  inst.: 12845920 (ipc=401.4) sim_rate=103596 (inst/sec) elapsed = 0:0:02:04 / Tue May 12 19:02:23 2015
GPGPU-Sim PTX: 12900000 instructions simulated : ctaid=(134,0,0) tid=(255,0,0)
GPGPU-Sim uArch: Shader 10 finished CTA #2 (32106,0), 5 CTAs running
GPGPU-Sim uArch: core: 10, cta: 2 initialized @(32107,0)
GPGPU-Sim PTX: 13000000 instructions simulated : ctaid=(140,0,0) tid=(223,0,0)
GPGPU-Sim uArch: Shader 13 finished CTA #1 (32393,0), 5 CTAs running
GPGPU-Sim uArch: core: 13, cta: 1 initialized @(32394,0)
GPGPU-Sim uArch: cycles simulated: 32500  inst.: 13083776 (ipc=402.6) sim_rate=103839 (inst/sec) elapsed = 0:0:02:06 / Tue May 12 19:02:25 2015
GPGPU-Sim PTX: 13100000 instructions simulated : ctaid=(33,0,0) tid=(127,0,0)
GPGPU-Sim PTX: 13200000 instructions simulated : ctaid=(117,0,0) tid=(63,0,0)
GPGPU-Sim PTX: 13300000 instructions simulated : ctaid=(133,0,0) tid=(255,0,0)
GPGPU-Sim uArch: cycles simulated: 33000  inst.: 13322848 (ipc=403.7) sim_rate=103277 (inst/sec) elapsed = 0:0:02:09 / Tue May 12 19:02:28 2015
GPGPU-Sim PTX: 13400000 instructions simulated : ctaid=(138,0,0) tid=(255,0,0)
GPGPU-Sim uArch: Shader 11 finished CTA #1 (33260,0), 5 CTAs running
GPGPU-Sim uArch: core: 11, cta: 1 initialized @(33261,0)
GPGPU-Sim uArch: Shader 11 finished CTA #2 (33307,0), 5 CTAs running
GPGPU-Sim uArch: core: 11, cta: 2 initialized @(33308,0)
GPGPU-Sim PTX: 13500000 instructions simulated : ctaid=(147,0,0) tid=(255,0,0)
GPGPU-Sim uArch: cycles simulated: 33500  inst.: 13561056 (ipc=404.8) sim_rate=103519 (inst/sec) elapsed = 0:0:02:11 / Tue May 12 19:02:30 2015
GPGPU-Sim PTX: 13600000 instructions simulated : ctaid=(144,0,0) tid=(159,0,0)
GPGPU-Sim PTX: 13700000 instructions simulated : ctaid=(125,0,0) tid=(127,0,0)
GPGPU-Sim PTX: 13800000 instructions simulated : ctaid=(136,0,0) tid=(95,0,0)
GPGPU-Sim uArch: cycles simulated: 34000  inst.: 13798912 (ipc=405.9) sim_rate=103751 (inst/sec) elapsed = 0:0:02:13 / Tue May 12 19:02:32 2015
GPGPU-Sim uArch: Shader 4 finished CTA #1 (34053,0), 5 CTAs running
GPGPU-Sim uArch: core:  4, cta: 1 initialized @(34054,0)
GPGPU-Sim PTX: 13900000 instructions simulated : ctaid=(113,0,0) tid=(127,0,0)
GPGPU-Sim PTX: 14000000 instructions simulated : ctaid=(110,0,0) tid=(95,0,0)
GPGPU-Sim uArch: cycles simulated: 34500  inst.: 14037664 (ipc=406.9) sim_rate=103982 (inst/sec) elapsed = 0:0:02:15 / Tue May 12 19:02:34 2015
GPGPU-Sim PTX: 14100000 instructions simulated : ctaid=(150,0,0) tid=(191,0,0)
GPGPU-Sim PTX: 14200000 instructions simulated : ctaid=(150,0,0) tid=(127,0,0)
GPGPU-Sim uArch: Shader 4 finished CTA #2 (34865,0), 5 CTAs running
GPGPU-Sim uArch: core:  4, cta: 2 initialized @(34866,0)
GPGPU-Sim uArch: cycles simulated: 35000  inst.: 14275648 (ipc=407.9) sim_rate=104201 (inst/sec) elapsed = 0:0:02:17 / Tue May 12 19:02:36 2015
GPGPU-Sim PTX: 14300000 instructions simulated : ctaid=(133,0,0) tid=(255,0,0)
GPGPU-Sim uArch: Shader 12 finished CTA #1 (35093,0), 5 CTAs running
GPGPU-Sim uArch: core: 12, cta: 1 initialized @(35094,0)
GPGPU-Sim uArch: Shader 12 finished CTA #2 (35112,0), 5 CTAs running
GPGPU-Sim uArch: core: 12, cta: 2 initialized @(35113,0)
GPGPU-Sim PTX: 14400000 instructions simulated : ctaid=(142,0,0) tid=(31,0,0)
GPGPU-Sim PTX: 14500000 instructions simulated : ctaid=(147,0,0) tid=(159,0,0)
GPGPU-Sim uArch: cycles simulated: 35500  inst.: 14512640 (ipc=408.8) sim_rate=104407 (inst/sec) elapsed = 0:0:02:19 / Tue May 12 19:02:38 2015
GPGPU-Sim PTX: 14600000 instructions simulated : ctaid=(71,0,0) tid=(95,0,0)
GPGPU-Sim PTX: 14700000 instructions simulated : ctaid=(149,0,0) tid=(159,0,0)
GPGPU-Sim uArch: cycles simulated: 36000  inst.: 14749376 (ipc=409.7) sim_rate=104605 (inst/sec) elapsed = 0:0:02:21 / Tue May 12 19:02:40 2015
GPGPU-Sim PTX: 14800000 instructions simulated : ctaid=(150,0,0) tid=(63,0,0)
GPGPU-Sim PTX: 14900000 instructions simulated : ctaid=(126,0,0) tid=(159,0,0)
GPGPU-Sim uArch: cycles simulated: 36500  inst.: 14985984 (ipc=410.6) sim_rate=104797 (inst/sec) elapsed = 0:0:02:23 / Tue May 12 19:02:42 2015
GPGPU-Sim PTX: 15000000 instructions simulated : ctaid=(141,0,0) tid=(223,0,0)
GPGPU-Sim uArch: Shader 12 finished CTA #5 (36610,0), 5 CTAs running
GPGPU-Sim uArch: core: 12, cta: 5 initialized @(36611,0)
GPGPU-Sim uArch: Shader 3 finished CTA #1 (36623,0), 5 CTAs running
GPGPU-Sim uArch: core:  3, cta: 1 initialized @(36624,0)
GPGPU-Sim PTX: 15100000 instructions simulated : ctaid=(47,0,0) tid=(191,0,0)
GPGPU-Sim uArch: Shader 14 finished CTA #5 (36886,0), 5 CTAs running
GPGPU-Sim uArch: core: 14, cta: 5 initialized @(36887,0)
GPGPU-Sim PTX: 15200000 instructions simulated : ctaid=(137,0,0) tid=(95,0,0)
GPGPU-Sim uArch: cycles simulated: 37000  inst.: 15222560 (ipc=411.4) sim_rate=104983 (inst/sec) elapsed = 0:0:02:25 / Tue May 12 19:02:44 2015
GPGPU-Sim uArch: Shader 9 finished CTA #1 (37022,0), 5 CTAs running
GPGPU-Sim uArch: core:  9, cta: 1 initialized @(37023,0)
GPGPU-Sim PTX: 15300000 instructions simulated : ctaid=(151,0,0) tid=(127,0,0)
GPGPU-Sim PTX: 15400000 instructions simulated : ctaid=(131,0,0) tid=(63,0,0)
GPGPU-Sim uArch: Shader 5 finished CTA #0 (37410,0), 5 CTAs running
GPGPU-Sim uArch: core:  5, cta: 0 initialized @(37411,0)
GPGPU-Sim uArch: cycles simulated: 37500  inst.: 15460544 (ipc=412.3) sim_rate=104463 (inst/sec) elapsed = 0:0:02:28 / Tue May 12 19:02:47 2015
GPGPU-Sim uArch: Shader 8 finished CTA #1 (37550,0), 5 CTAs running
GPGPU-Sim uArch: core:  8, cta: 1 initialized @(37551,0)
GPGPU-Sim PTX: 15500000 instructions simulated : ctaid=(154,0,0) tid=(63,0,0)
GPGPU-Sim uArch: Shader 14 finished CTA #1 (37621,0), 5 CTAs running
GPGPU-Sim uArch: core: 14, cta: 1 initialized @(37622,0)
GPGPU-Sim uArch: Shader 14 finished CTA #0 (37659,0), 5 CTAs running
GPGPU-Sim uArch: core: 14, cta: 0 initialized @(37660,0)
GPGPU-Sim PTX: 15600000 instructions simulated : ctaid=(144,0,0) tid=(191,0,0)
GPGPU-Sim uArch: Shader 11 finished CTA #5 (37849,0), 5 CTAs running
GPGPU-Sim uArch: core: 11, cta: 5 initialized @(37850,0)
GPGPU-Sim PTX: 15700000 instructions simulated : ctaid=(148,0,0) tid=(191,0,0)
GPGPU-Sim uArch: cycles simulated: 38000  inst.: 15696448 (ipc=413.1) sim_rate=104642 (inst/sec) elapsed = 0:0:02:30 / Tue May 12 19:02:49 2015
GPGPU-Sim uArch: Shader 7 finished CTA #1 (38088,0), 5 CTAs running
GPGPU-Sim uArch: core:  7, cta: 1 initialized @(38089,0)
GPGPU-Sim uArch: Shader 9 finished CTA #0 (38125,0), 5 CTAs running
GPGPU-Sim uArch: core:  9, cta: 0 initialized @(38126,0)
GPGPU-Sim PTX: 15800000 instructions simulated : ctaid=(11,0,0) tid=(95,0,0)
GPGPU-Sim PTX: 15900000 instructions simulated : ctaid=(156,0,0) tid=(159,0,0)
GPGPU-Sim uArch: Shader 7 finished CTA #2 (38434,0), 5 CTAs running
GPGPU-Sim uArch: core:  7, cta: 2 initialized @(38435,0)
GPGPU-Sim uArch: cycles simulated: 38500  inst.: 15933696 (ipc=413.9) sim_rate=104826 (inst/sec) elapsed = 0:0:02:32 / Tue May 12 19:02:51 2015
GPGPU-Sim PTX: 16000000 instructions simulated : ctaid=(154,0,0) tid=(95,0,0)
GPGPU-Sim uArch: Shader 10 finished CTA #0 (38807,0), 5 CTAs running
GPGPU-Sim uArch: core: 10, cta: 0 initialized @(38808,0)
GPGPU-Sim PTX: 16100000 instructions simulated : ctaid=(163,0,0) tid=(63,0,0)
GPGPU-Sim uArch: Shader 3 finished CTA #5 (38946,0), 5 CTAs running
GPGPU-Sim uArch: core:  3, cta: 5 initialized @(38947,0)
GPGPU-Sim uArch: Shader 8 finished CTA #0 (38947,0), 5 CTAs running
GPGPU-Sim uArch: core:  8, cta: 0 initialized @(38948,0)
GPGPU-Sim uArch: cycles simulated: 39000  inst.: 16172480 (ipc=414.7) sim_rate=105016 (inst/sec) elapsed = 0:0:02:34 / Tue May 12 19:02:53 2015
GPGPU-Sim uArch: Shader 4 finished CTA #5 (39000,0), 5 CTAs running
GPGPU-Sim uArch: core:  4, cta: 5 initialized @(39001,0)
GPGPU-Sim PTX: 16200000 instructions simulated : ctaid=(144,0,0) tid=(95,0,0)
GPGPU-Sim uArch: Shader 8 finished CTA #3 (39071,0), 5 CTAs running
GPGPU-Sim uArch: core:  8, cta: 3 initialized @(39072,0)
GPGPU-Sim uArch: Shader 4 finished CTA #0 (39073,0), 5 CTAs running
GPGPU-Sim uArch: core:  4, cta: 0 initialized @(39074,0)
GPGPU-Sim uArch: Shader 8 finished CTA #4 (39080,0), 5 CTAs running
GPGPU-Sim uArch: core:  8, cta: 4 initialized @(39081,0)
GPGPU-Sim PTX: 16300000 instructions simulated : ctaid=(107,0,0) tid=(127,0,0)
GPGPU-Sim PTX: 16400000 instructions simulated : ctaid=(163,0,0) tid=(255,0,0)
GPGPU-Sim uArch: cycles simulated: 39500  inst.: 16409120 (ipc=415.4) sim_rate=104516 (inst/sec) elapsed = 0:0:02:37 / Tue May 12 19:02:56 2015
GPGPU-Sim PTX: 16500000 instructions simulated : ctaid=(156,0,0) tid=(223,0,0)
GPGPU-Sim uArch: Shader 0 finished CTA #1 (39794,0), 5 CTAs running
GPGPU-Sim uArch: core:  0, cta: 1 initialized @(39795,0)
GPGPU-Sim PTX: 16600000 instructions simulated : ctaid=(159,0,0) tid=(31,0,0)
GPGPU-Sim uArch: Shader 0 finished CTA #2 (39933,0), 5 CTAs running
GPGPU-Sim uArch: core:  0, cta: 2 initialized @(39934,0)
GPGPU-Sim uArch: cycles simulated: 40000  inst.: 16647232 (ipc=416.2) sim_rate=104699 (inst/sec) elapsed = 0:0:02:39 / Tue May 12 19:02:58 2015
GPGPU-Sim PTX: 16700000 instructions simulated : ctaid=(135,0,0) tid=(191,0,0)
GPGPU-Sim PTX: 16800000 instructions simulated : ctaid=(74,0,0) tid=(63,0,0)
GPGPU-Sim uArch: cycles simulated: 40500  inst.: 16884032 (ipc=416.9) sim_rate=104869 (inst/sec) elapsed = 0:0:02:41 / Tue May 12 19:03:00 2015
GPGPU-Sim PTX: 16900000 instructions simulated : ctaid=(163,0,0) tid=(223,0,0)
GPGPU-Sim uArch: Shader 0 finished CTA #5 (40661,0), 5 CTAs running
GPGPU-Sim uArch: core:  0, cta: 5 initialized @(40662,0)
GPGPU-Sim PTX: 17000000 instructions simulated : ctaid=(134,0,0) tid=(255,0,0)
GPGPU-Sim PTX: 17100000 instructions simulated : ctaid=(157,0,0) tid=(255,0,0)
GPGPU-Sim uArch: cycles simulated: 41000  inst.: 17121504 (ipc=417.6) sim_rate=105039 (inst/sec) elapsed = 0:0:02:43 / Tue May 12 19:03:02 2015
GPGPU-Sim PTX: 17200000 instructions simulated : ctaid=(158,0,0) tid=(223,0,0)
GPGPU-Sim PTX: 17300000 instructions simulated : ctaid=(165,0,0) tid=(63,0,0)
GPGPU-Sim uArch: cycles simulated: 41500  inst.: 17359072 (ipc=418.3) sim_rate=105206 (inst/sec) elapsed = 0:0:02:45 / Tue May 12 19:03:04 2015
GPGPU-Sim PTX: 17400000 instructions simulated : ctaid=(176,0,0) tid=(95,0,0)
GPGPU-Sim PTX: 17500000 instructions simulated : ctaid=(159,0,0) tid=(95,0,0)
GPGPU-Sim uArch: Shader 13 finished CTA #5 (41868,0), 5 CTAs running
GPGPU-Sim uArch: core: 13, cta: 5 initialized @(41869,0)
GPGPU-Sim PTX: 17600000 instructions simulated : ctaid=(150,0,0) tid=(191,0,0)
GPGPU-Sim uArch: cycles simulated: 42000  inst.: 17595552 (ipc=418.9) sim_rate=105362 (inst/sec) elapsed = 0:0:02:47 / Tue May 12 19:03:06 2015
GPGPU-Sim PTX: 17700000 instructions simulated : ctaid=(146,0,0) tid=(255,0,0)
GPGPU-Sim PTX: 17800000 instructions simulated : ctaid=(42,0,0) tid=(255,0,0)
GPGPU-Sim uArch: Shader 2 finished CTA #2 (42496,0), 5 CTAs running
GPGPU-Sim uArch: core:  2, cta: 2 initialized @(42497,0)
GPGPU-Sim uArch: cycles simulated: 42500  inst.: 17829920 (ipc=419.5) sim_rate=105502 (inst/sec) elapsed = 0:0:02:49 / Tue May 12 19:03:08 2015
GPGPU-Sim uArch: Shader 1 finished CTA #2 (42527,0), 5 CTAs running
GPGPU-Sim uArch: core:  1, cta: 2 initialized @(42528,0)
GPGPU-Sim uArch: Shader 6 finished CTA #1 (42539,0), 5 CTAs running
GPGPU-Sim uArch: core:  6, cta: 1 initialized @(42540,0)
GPGPU-Sim uArch: Shader 7 finished CTA #0 (42596,0), 5 CTAs running
GPGPU-Sim uArch: core:  7, cta: 0 initialized @(42597,0)
GPGPU-Sim PTX: 17900000 instructions simulated : ctaid=(170,0,0) tid=(63,0,0)
GPGPU-Sim uArch: Shader 6 finished CTA #2 (42694,0), 5 CTAs running
GPGPU-Sim uArch: core:  6, cta: 2 initialized @(42695,0)
GPGPU-Sim uArch: Shader 2 finished CTA #1 (42749,0), 5 CTAs running
GPGPU-Sim uArch: core:  2, cta: 1 initialized @(42750,0)
GPGPU-Sim uArch: Shader 6 finished CTA #5 (42847,0), 5 CTAs running
GPGPU-Sim uArch: core:  6, cta: 5 initialized @(42848,0)
GPGPU-Sim PTX: 18000000 instructions simulated : ctaid=(121,0,0) tid=(63,0,0)
GPGPU-Sim uArch: Shader 1 finished CTA #5 (42859,0), 5 CTAs running
GPGPU-Sim uArch: core:  1, cta: 5 initialized @(42860,0)
GPGPU-Sim uArch: Shader 9 finished CTA #2 (42991,0), 5 CTAs running
GPGPU-Sim uArch: core:  9, cta: 2 initialized @(42992,0)
GPGPU-Sim uArch: cycles simulated: 43000  inst.: 18066720 (ipc=420.2) sim_rate=105653 (inst/sec) elapsed = 0:0:02:51 / Tue May 12 19:03:10 2015
GPGPU-Sim uArch: Shader 10 finished CTA #5 (43020,0), 5 CTAs running
GPGPU-Sim uArch: core: 10, cta: 5 initialized @(43021,0)
GPGPU-Sim uArch: Shader 9 finished CTA #3 (43060,0), 5 CTAs running
GPGPU-Sim uArch: core:  9, cta: 3 initialized @(43061,0)
GPGPU-Sim PTX: 18100000 instructions simulated : ctaid=(180,0,0) tid=(159,0,0)
GPGPU-Sim uArch: Shader 9 finished CTA #4 (43166,0), 5 CTAs running
GPGPU-Sim uArch: Shader 9 finished CTA #5 (43166,0), 4 CTAs running
GPGPU-Sim uArch: core:  9, cta: 4 initialized @(43167,0)
GPGPU-Sim uArch: core:  9, cta: 5 initialized @(43168,0)
GPGPU-Sim PTX: 18200000 instructions simulated : ctaid=(159,0,0) tid=(255,0,0)
GPGPU-Sim uArch: Shader 3 finished CTA #0 (43394,0), 5 CTAs running
GPGPU-Sim uArch: core:  3, cta: 0 initialized @(43395,0)
GPGPU-Sim PTX: 18300000 instructions simulated : ctaid=(179,0,0) tid=(255,0,0)
GPGPU-Sim uArch: cycles simulated: 43500  inst.: 18301824 (ipc=420.7) sim_rate=105182 (inst/sec) elapsed = 0:0:02:54 / Tue May 12 19:03:13 2015
GPGPU-Sim uArch: Shader 0 finished CTA #0 (43683,0), 5 CTAs running
GPGPU-Sim uArch: core:  0, cta: 0 initialized @(43684,0)
[...]
traffic_breakdown_coretomem[INST_ACC_R] = 24408 {8:3051,}
traffic_breakdown_coretomem[TEXTURE_ACC_R] = 240 {8:30,}
traffic_breakdown_memtocore[CONST_ACC_R] = 71280 {72:990,}
traffic_breakdown_memtocore[GLOBAL_ACC_R] = 279616 {136:2056,}
traffic_breakdown_memtocore[GLOBAL_ACC_W] = 16448 {8:2056,}
traffic_breakdown_memtocore[INST_ACC_R] = 414936 {136:3051,}
traffic_breakdown_memtocore[TEXTURE_ACC_R] = 4080 {136:30,}
maxmrqlatency = 215 
maxdqlatency = 0 
maxmflatency = 641 
averagemflatency = 265 
max_icnt2mem_latency = 97 
max_icnt2sh_latency = 75455 
mrq_lat_table:2708 	1333 	205 	753 	814 	222 	141 	57 	0 	0 	0 	0 	0 	0 	0 	0 	0 	0 	0 	0 	0 	0 	0 	0 	0 	0 	0 	0 	0 	0 	0 	0 	
dq_lat_table:0 	0 	0 	0 	0 	0 	0 	0 	0 	0 	0 	0 	0 	0 	0 	0 	0 	0 	0 	0 	0 	0 	0 	0 	0 	0 	0 	0 	0 	0 	0 	0 	
mf_lat_table:0 	0 	0 	0 	17 	2 	3 	1398 	3564 	148 	0 	0 	0 	0 	0 	0 	0 	0 	0 	0 	0 	0 	0 	0 	0 	0 	0 	0 	0 	0 	0 	0 	
icnt2mem_lat_table:0 	0 	0 	6249 	1533 	336 	65 	0 	0 	0 	0 	0 	0 	0 	0 	0 	0 	0 	0 	0 	0 	0 	0 	0 	
icnt2sh_lat_table:0 	0 	0 	1626 	972 	454 	24 	0 	0 	0 	0 	0 	0 	0 	488 	1136 	432 	0 	0 	0 	0 	0 	0 	0 	
mf_lat_pw_table:0 	0 	0 	0 	2 	1 	0 	14 	122 	0 	0 	0 	0 	0 	0 	0 	0 	0 	0 	0 	0 	0 	0 	0 	0 	0 	0 	0 	0 	0 	0 	0 	
maximum concurrent accesses to same row:
dram[0]:         2         2         0         0        10        10        32        32        32        32        32        32         0         0         0         0 
dram[1]:         2         2         0         0        10        10        32        32        32        32        32        32         0         0         0         0 
dram[2]:         4         2         0         0        10        12        32        32        32        32        32        32         0         0         0         0 
dram[3]:         4         2         0         0        10        12        32        32        32        32        32        32         0         0         0         0 
dram[4]:         4         2         0         0        10        12        32        32        32        32        32        32         0         0         0         0 
dram[5]:         3         2         0         0        10        12        32        32        32        32        32        32         0         0         0         0 
maximum service time to same row:
dram[0]:     12678     10640     25346     21541     26331     27268     43194     41703     54680     53343     41958     43354     37654     38000     48575     48950 
dram[1]:      9722     11490     19141     21553     25947     27275     41537     41712     56877     53348     43049     43366     37656     38002     48582     48954 
dram[2]:     10674     12344     19147     21565     25933     27320     41547     41725     56888     53109     43008     43081     37660     38052     48588     49122 
dram[3]:      9890     13187     19160     25316     25958     26322     41554     43156     56922     54550     42810     41672     37663     38054     48663     49124 
dram[4]:      6665     14038     19185     25322     25961     26325     41590     43154     57001     54710     43059     41677     38362     38057     48815     49128 
dram[5]:      9809     14856     21354     25334     27266     26332     41696     43209     53333     54647     43346     41679     38297     38063     48816     49132 
average row accesses per activate:
dram[0]: 11.500000 34.000000 64.000000 64.000000 37.000000 37.000000 48.000000 48.000000 48.000000 48.000000 30.000000 28.000000 32.000000 32.000000 32.000000 32.000000 
dram[1]: 11.666667 34.000000 64.000000 64.000000 37.000000 37.000000 48.000000 48.000000 48.000000 48.000000 28.000000 28.000000 32.000000 32.000000 32.000000 32.000000 
dram[2]: 34.500000 34.000000 64.000000 64.000000 37.000000 38.000000 48.000000 48.000000 48.000000 48.000000 28.000000 28.000000 32.000000 32.000000 32.000000 32.000000 
dram[3]: 34.000000 34.000000 64.000000 64.000000 37.000000 38.000000 48.000000 48.000000 48.000000 48.000000 28.000000 28.000000 32.000000 32.000000 32.000000 32.000000 
dram[4]: 22.666666 34.000000 64.000000 64.000000 37.000000 38.000000 48.000000 48.000000 48.000000 48.000000 28.000000 28.000000 32.000000 32.000000 32.000000 32.000000 
dram[5]: 34.500000 34.000000 64.000000 64.000000 37.000000 38.000000 48.000000 48.000000 48.000000 48.000000 28.000000 28.000000 32.000000 32.000000 32.000000 32.000000 
average row locality = 6233/165 = 37.775757
number of total memory accesses made:
dram[0]:         0         0         0         0         0         0         0         0         0         0         0         0         0         0         0         0 
dram[1]:         0         0         0         0         0         0         0         0         0         0         0         0         0         0         0         0 
dram[2]:         0         0         0         0         0         0         0         0         0         0         0         0         0         0         0         0 
dram[3]:         0         0         0         0         0         0         0         0         0         0         0         0         0         0         0         0 
dram[4]:         0         0         0         0         0         0         0         0         0         0         0         0         0         0         0         0 
dram[5]:         0         0         0         0         0         0         0         0         0         0         0         0         0         0         0         0 
total accesses: 0
min_bank_accesses = 0!
min_chip_accesses = 0!
number of total read accesses:
dram[0]:        39        36        32        32        42        42        64        64        64        64        46        44        32        32        32        32 
dram[1]:        40        36        32        32        42        42        64        64        64        64        44        44        32        32        32        32 
dram[2]:        39        36        32        32        42        44        64        64        64        64        44        44        32        32        32        32 
dram[3]:        38        36        32        32        42        44        64        64        64        64        44        44        32        32        32        32 
dram[4]:        38        36        32        32        42        44        64        64        64        64        44        44        32        32        32        32 
dram[5]:        37        36        32        32        42        44        64        64        64        64        44        44        32        32        32        32 
total reads: 4177
bank skew: 64/32 = 2.00
chip skew: 697/695 = 1.00
number of total write accesses:
dram[0]:        30        32        32        32        32        32        32        32        32        32        14        12         0         0         0         0 
dram[1]:        30        32        32        32        32        32        32        32        32        32        12        12         0         0         0         0 
dram[2]:        30        32        32        32        32        32        32        32        32        32        12        12         0         0         0         0 
dram[3]:        30        32        32        32        32        32        32        32        32        32        12        12         0         0         0         0 
dram[4]:        30        32        32        32        32        32        32        32        32        32        12        12         0         0         0         0 
dram[5]:        32        32        32        32        32        32        32        32        32        32        12        12         0         0         0         0 
total reads: 2056
min_bank_accesses = 0!
chip skew: 344/342 = 1.01
average mf latency per bank:
dram[0]:        312       265       133       135       158       161       253       226       199       183       205       215       266       272       267       275
dram[1]:        384       262       130       138       162       163       227       244       187       184       212       213       270       272       271       273
dram[2]:        405       263       132       137       162       160       245       261       190       193       214       211       274       271       272       271
dram[3]:        420       258       136       131       163       158       248       239       193       186       217       213       275       280       269       270
dram[4]:        424       264       134       135       161       159       251       248       194       184       211       217       270       281       267       273
dram[5]:        316       267       133       134       154       164       229       258       183       186       212       218       274       278       272       272
maximum mf latency per bank:
dram[0]:        319       321       295       306       389       373       613       590       593       357       315       319       323       317       302       336
dram[1]:        407       340       281       326       380       377       500       608       503       370       326       317       327       321       311       310
dram[2]:        420       343       284       309       462       324       594       641       436       500       330       317       331       320       315       317
dram[3]:        423       300       318       313       447       328       559       573       484       450       326       321       330       327       325       327
dram[4]:        381       308       297       357       459       350       612       625       558       384       311       325       326       331       315       331
dram[5]:        301       329       314       305       345       360       550       641       514       384       315       322       337       319       326       335

Number of Memory Banks Accessed per Memory Operation per Warp (from 0):
0	0	0	0	0	0	0	0	0	0	0	0	0	0	0	0	0	0	0	0	0	0	0	0	0	0	0	0	0	0	0	0	0	0	0	0	0	0	0	0	0	0	0	0	0	0	0	0	0	0	0	0	0	0	0	0	0	0	0	0	0	0	0	0	0	0	0	0	0	0	0	0	0	0	0	0	0	0	0	0	0	0	0	0	0	0	0	0	0	0	0	0	0	0	0	0	
Average # of Memory Banks Accessed per Memory Operation per Warp=-nan

position of mrq chosen
0	0	0	0	0	0	0	0	0	0	0	0	0	0	0	0	

average position of mrq chosen = -nan
Memory Partition 0: 
Cache L2_bank_000:
MSHR contents

Cache L2_bank_001:
MSHR contents

In Dram Latency Queue (total = 0): 
DRAM[0]: 16 bks, busW=4 BL=8 CL=12, tRRD=2 tCCD=6, tRCD=12 tRAS=28 tRP=12 tRC=40
n_cmd=99601 n_nop=97473 n_act=31 n_pre=15 n_req=1041 n_rd=1394 n_write=688 bw_util=0.04181
n_activity=13707 dram_eff=0.3038
bk0: 78a 98700i bk1: 72a 98754i bk2: 64a 98826i bk3: 64a 98810i bk4: 84a 98734i bk5: 84a 98689i bk6: 128a 98419i bk7: 128a 98328i bk8: 128a 98578i bk9: 128a 98616i bk10: 92a 99071i bk11: 88a 99091i bk12: 64a 99449i bk13: 64a 99433i bk14: 64a 99436i bk15: 64a 99416i 
dram_util_bins: 0 0 0 0 0 0 0 0 0 0
dram_eff_bins: 0 0 0 0 0 0 0 0 0 0
mrqq: max=16 avg=0.124949
Memory Partition 1: 
Cache L2_bank_002:
MSHR contents

Cache L2_bank_003:
MSHR contents
MSHR: tag=0x80050380, atomic=0 1 entries : 0x7f091e59fbf0 :  mf: uid=636912, sid04:w37, part=1, addr=0x80050380, load , size=128, unknown  status = IN_PARTITION_DRAM (75447), 

In Dram Latency Queue (total = 0): 
DRAM[1]: 16 bks, busW=4 BL=8 CL=12, tRRD=2 tCCD=6, tRCD=12 tRAS=28 tRP=12 tRC=40
n_cmd=99601 n_nop=97477 n_act=32 n_pre=16 n_req=1038 n_rd=1392 n_write=684 bw_util=0.04169
n_activity=13565 dram_eff=0.3061
bk0: 80a 98761i bk1: 72a 98722i bk2: 64a 98878i bk3: 64a 98766i bk4: 84a 98655i bk5: 84a 98651i bk6: 128a 98547i bk7: 128a 98392i bk8: 128a 98738i bk9: 128a 98635i bk10: 88a 99151i bk11: 88a 99106i bk12: 64a 99440i bk13: 64a 99405i bk14: 64a 99439i bk15: 64a 99416i 
dram_util_bins: 0 0 0 0 0 0 0 0 0 0
dram_eff_bins: 0 0 0 0 0 0 0 0 0 0
mrqq: max=16 avg=0.121103
Memory Partition 2: 
Cache L2_bank_004:
MSHR contents

Cache L2_bank_005:
MSHR contents
MSHR: tag=0x80050400, atomic=0 1 entries : 0x7f091e59fe60 :  mf: uid=636913, sid04:w38, part=2, addr=0x80050400, load , size=128, unknown  status = IN_PARTITION_DRAM (75453), 

In Dram Latency Queue (total = 0): 
DRAM[2]: 16 bks, busW=4 BL=8 CL=12, tRRD=2 tCCD=6, tRCD=12 tRAS=28 tRP=12 tRC=40
n_cmd=99601 n_nop=97483 n_act=28 n_pre=12 n_req=1039 n_rd=1394 n_write=684 bw_util=0.04173
n_activity=13484 dram_eff=0.3082
bk0: 78a 98813i bk1: 72a 98654i bk2: 64a 98841i bk3: 64a 98799i bk4: 84a 98740i bk5: 88a 98698i bk6: 128a 98563i bk7: 128a 98377i bk8: 128a 98622i bk9: 128a 98675i bk10: 88a 99131i bk11: 88a 99145i bk12: 64a 99433i bk13: 64a 99404i bk14: 64a 99435i bk15: 64a 99391i 
dram_util_bins: 0 0 0 0 0 0 0 0 0 0
dram_eff_bins: 0 0 0 0 0 0 0 0 0 0
mrqq: max=16 avg=0.124688
Memory Partition 3: 
Cache L2_bank_006:
MSHR contents

Cache L2_bank_007:
MSHR contents

In Dram Latency Queue (total = 0): 
DRAM[3]: 16 bks, busW=4 BL=8 CL=12, tRRD=2 tCCD=6, tRCD=12 tRAS=28 tRP=12 tRC=40
n_cmd=99601 n_nop=97485 n_act=28 n_pre=12 n_req=1038 n_rd=1392 n_write=684 bw_util=0.04169
n_activity=13361 dram_eff=0.3108
bk0: 76a 98835i bk1: 72a 98788i bk2: 64a 98818i bk3: 64a 98814i bk4: 84a 98722i bk5: 88a 98769i bk6: 128a 98458i bk7: 128a 98366i bk8: 128a 98567i bk9: 128a 98609i bk10: 88a 99151i bk11: 88a 99135i bk12: 64a 99436i bk13: 64a 99387i bk14: 64a 99440i bk15: 64a 99433i 
dram_util_bins: 0 0 0 0 0 0 0 0 0 0
dram_eff_bins: 0 0 0 0 0 0 0 0 0 0
mrqq: max=16 avg=0.121304
Memory Partition 4: 
Cache L2_bank_008:
MSHR contents

Cache L2_bank_009:
MSHR contents

In Dram Latency Queue (total = 0): 
DRAM[4]: 16 bks, busW=4 BL=8 CL=12, tRRD=2 tCCD=6, tRCD=12 tRAS=28 tRP=12 tRC=40
n_cmd=99601 n_nop=97483 n_act=29 n_pre=13 n_req=1038 n_rd=1392 n_write=684 bw_util=0.04169
n_activity=13278 dram_eff=0.3127
bk0: 76a 98788i bk1: 72a 98751i bk2: 64a 98801i bk3: 64a 98737i bk4: 84a 98724i bk5: 88a 98659i bk6: 128a 98431i bk7: 128a 98235i bk8: 128a 98556i bk9: 128a 98545i bk10: 88a 99126i bk11: 88a 99102i bk12: 64a 99426i bk13: 64a 99408i bk14: 64a 99430i bk15: 64a 99424i 
dram_util_bins: 0 0 0 0 0 0 0 0 0 0
dram_eff_bins: 0 0 0 0 0 0 0 0 0 0
mrqq: max=16 avg=0.138382
Memory Partition 5: 
Cache L2_bank_010:
MSHR contents

Cache L2_bank_011:
MSHR contents

In Dram Latency Queue (total = 0): 
DRAM[5]: 16 bks, busW=4 BL=8 CL=12, tRRD=2 tCCD=6, tRCD=12 tRAS=28 tRP=12 tRC=40
n_cmd=99601 n_nop=97483 n_act=28 n_pre=12 n_req=1039 n_rd=1390 n_write=688 bw_util=0.04173
n_activity=13150 dram_eff=0.316
bk0: 74a 98714i bk1: 72a 98746i bk2: 64a 98796i bk3: 64a 98791i bk4: 84a 98783i bk5: 88a 98662i bk6: 128a 98519i bk7: 128a 98176i bk8: 128a 98640i bk9: 128a 98561i bk10: 88a 99144i bk11: 88a 99063i bk12: 64a 99393i bk13: 64a 99400i bk14: 64a 99419i bk15: 64a 99441i 
dram_util_bins: 0 0 0 0 0 0 0 0 0 0
dram_eff_bins: 0 0 0 0 0 0 0 0 0 0
mrqq: max=16 avg=0.134938

========= L2 cache stats =========
L2_cache_bank[0]: Access = 785, Miss = 351, Miss_rate = 0.447, Pending_hits = 15, Reservation_fails = 444
L2_cache_bank[1]: Access = 637, Miss = 346, Miss_rate = 0.543, Pending_hits = 9, Reservation_fails = 180
L2_cache_bank[2]: Access = 824, Miss = 350, Miss_rate = 0.425, Pending_hits = 19, Reservation_fails = 303
L2_cache_bank[3]: Access = 619, Miss = 346, Miss_rate = 0.559, Pending_hits = 10, Reservation_fails = 218
L2_cache_bank[4]: Access = 807, Miss = 349, Miss_rate = 0.432, Pending_hits = 15, Reservation_fails = 386
L2_cache_bank[5]: Access = 625, Miss = 348, Miss_rate = 0.557, Pending_hits = 10, Reservation_fails = 201
L2_cache_bank[6]: Access = 696, Miss = 348, Miss_rate = 0.500, Pending_hits = 14, Reservation_fails = 452
L2_cache_bank[7]: Access = 606, Miss = 348, Miss_rate = 0.574, Pending_hits = 10, Reservation_fails = 118
L2_cache_bank[8]: Access = 736, Miss = 348, Miss_rate = 0.473, Pending_hits = 20, Reservation_fails = 396
L2_cache_bank[9]: Access = 599, Miss = 348, Miss_rate = 0.581, Pending_hits = 10, Reservation_fails = 135
L2_cache_bank[10]: Access = 671, Miss = 347, Miss_rate = 0.517, Pending_hits = 10, Reservation_fails = 242
L2_cache_bank[11]: Access = 578, Miss = 348, Miss_rate = 0.602, Pending_hits = 12, Reservation_fails = 168
L2_total_cache_accesses = 8183
L2_total_cache_misses = 4177
L2_total_cache_miss_rate = 0.5104
L2_total_cache_pending_hits = 154
L2_total_cache_reservation_fails = 3243
L2_total_cache_breakdown:
	L2_cache_stats_breakdown[GLOBAL_ACC_R][MISS] = 2056
	L2_cache_stats_breakdown[GLOBAL_ACC_R][RESERVATION_FAIL] = 732
	L2_cache_stats_breakdown[CONST_ACC_R][HIT] = 889
	L2_cache_stats_breakdown[CONST_ACC_R][HIT_RESERVED] = 67
	L2_cache_stats_breakdown[CONST_ACC_R][MISS] = 34
	L2_cache_stats_breakdown[CONST_ACC_R][RESERVATION_FAIL] = 826
	L2_cache_stats_breakdown[TEXTURE_ACC_R][HIT] = 24
	L2_cache_stats_breakdown[TEXTURE_ACC_R][HIT_RESERVED] = 4
	L2_cache_stats_breakdown[TEXTURE_ACC_R][MISS] = 2
	L2_cache_stats_breakdown[TEXTURE_ACC_R][RESERVATION_FAIL] = 91
	L2_cache_stats_breakdown[GLOBAL_ACC_W][MISS] = 2056
	L2_cache_stats_breakdown[INST_ACC_R][HIT] = 2939
	L2_cache_stats_breakdown[INST_ACC_R][HIT_RESERVED] = 83
	L2_cache_stats_breakdown[INST_ACC_R][MISS] = 29
	L2_cache_stats_breakdown[INST_ACC_R][RESERVATION_FAIL] = 1594
L2_cache_data_port_util = 0.015
L2_cache_fill_port_util = 0.018

icnt_total_pkts_mem_to_simt=30711
icnt_total_pkts_simt_to_mem=16407
LD_mem_lat_dist  0 0 0 0 0 0 0 0 0 0 0 0 0 0 0 0 0 0 0 0 0 0 0 0 0 0 0
ST_mem_lat_dist  0 0 0 0 0 0 0 0 0 0 0 0 0 0 0 0 0 0 0 0 0 0 0 0 0 0 0
----------------------------Interconnect-DETAILS--------------------------------
Class 0:
Packet latency average = 11.2927
	minimum = 6
	maximum = 82
Network latency average = 10.2058
	minimum = 6
	maximum = 76
Slowest packet = e
Flit latency average = 8.84286
	minimum = 6
	maximum = 72
Slowest flit = 71ec
Fragmentation average = 0
	minimum = 0
	maximum = 0
Injected packet rate average = 0.00803313
	minimum = 0.00653361 (at node c)
	maximum = 0.0109203 (at node 11)
Accepted packet rate average = 0.00803313
	minimum = 0.00653361 (at node c)
	maximum = 0.0109203 (at node 11)
Injected flit rate average = 0.0231275
	minimum = 0.013319 (at node c)
	maximum = 0.0428064 (at node 11)
Accepted flit rate average= 0.0231275
	minimum = 0.016778 (at node 1a)
	maximum = 0.0320319 (at node e)
Injected packet length average = 2.87902
Accepted packet length average = 2.87902
Total in-flight flits = 0 (0 measured)
====== Overall Traffic Statistics ======
====== Traffic class 0 ======
Packet latency average = 11.2927 (1 samples)
	minimum = 6 (1 samples)
	maximum = 82 (1 samples)
Network latency average = 10.2058 (1 samples)
	minimum = 6 (1 samples)
	maximum = 76 (1 samples)
Flit latency average = 8.84286 (1 samples)
	minimum = 6 (1 samples)
	maximum = 72 (1 samples)
Fragmentation average = 0 (1 samples)
	minimum = 0 (1 samples)
	maximum = 0 (1 samples)
Injected packet rate average = 0.00803313 (1 samples)
	minimum = 0.00653361 (1 samples)
	maximum = 0.0109203 (1 samples)
Accepted packet rate average = 0.00803313 (1 samples)
	minimum = 0.00653361 (1 samples)
	maximum = 0.0109203 (1 samples)
Injected flit rate average = 0.0231275 (1 samples)
	minimum = 0.013319 (1 samples)
	maximum = 0.0428064 (1 samples)
Accepted flit rate average = 0.0231275 (1 samples)
	minimum = 0.016778 (1 samples)
	maximum = 0.0320319 (1 samples)
Injected packet size average = 2.87902 (1 samples)
Accepted packet size average = 2.87902 (1 samples)
Hops average = 1 (1 samples)
----------------------------END-of-Interconnect-DETAILS-------------------------


gpgpu_simulation_time = 0 days, 0 hrs, 4 min, 49 sec (289 sec)
gpgpu_simulation_rate = 104037 (inst/sec)
gpgpu_simulation_rate = 261 (cycle/sec)
GPGPU-Sim: synchronize waiting for inactive GPU simulation
GPGPU-Sim API: Stream Manager State
GPGPU-Sim: detected inactive GPU simulation thread
GPU processing time: 288937.156250 (ms)
Total processing time: 289034.468750 (ms)


###############################################################

