

        *** GPGPU-Sim Simulator Version 3.2.2  [build 0] ***


GPGPU-Sim PTX: simulation mode 0 (can change with PTX_SIM_MODE_FUNC environment variable:
               1=functional simulation only, 0=detailed performance simulator)
GPGPU-Sim: Configuration options:

-network_mode                           1 # Interconnection network mode
-inter_config_file   config_fermi_islip.icnt # Interconnection network config file
-gpgpu_ptx_use_cuobjdump                    1 # Use cuobjdump to extract ptx and sass from binaries
-gpgpu_experimental_lib_support                    0 # Try to extract code from cuda libraries [Broken because of unknown cudaGetExportTable]
-gpgpu_ptx_convert_to_ptxplus                    0 # Convert SASS (native ISA) to ptxplus and run ptxplus
-gpgpu_ptx_force_max_capability                   20 # Force maximum compute capability
-gpgpu_ptx_inst_debug_to_file                    0 # Dump executed instructions' debug information to file
-gpgpu_ptx_inst_debug_file       inst_debug.txt # Executed instructions' debug output file
-gpgpu_ptx_inst_debug_thread_uid                    1 # Thread UID for executed instructions' debug output
-gpgpu_simd_model                       1 # 1 = post-dominator
-gpgpu_shader_core_pipeline          1536:256:32 # shader core pipeline config, i.e., {<nthread>:<warpsize>}
-gpgpu_tex_cache:l1  4:128:24,L:R:m:N:L,F:128:4,128:2 # per-shader L1 texture cache  (READ-ONLY) config  {<nsets>:<bsize>:<assoc>,<rep>:<wr>:<alloc>:<wr_alloc>,<mshr>:<N>:<merge>,<mq>:<rf>}
-gpgpu_const_cache:l1 64:64:2,L:R:f:N:L,A:2:32,4 # per-shader L1 constant memory cache  (READ-ONLY) config  {<nsets>:<bsize>:<assoc>,<rep>:<wr>:<alloc>:<wr_alloc>,<mshr>:<N>:<merge>,<mq>} 
-gpgpu_cache:il1     4:128:4,L:R:f:N:L,A:2:32,4 # shader L1 instruction cache config  {<nsets>:<bsize>:<assoc>,<rep>:<wr>:<alloc>:<wr_alloc>,<mshr>:<N>:<merge>,<mq>} 
-gpgpu_cache:dl1     32:128:4,L:L:m:N:H,A:32:8,8 # per-shader L1 data cache config  {<nsets>:<bsize>:<assoc>,<rep>:<wr>:<alloc>:<wr_alloc>,<mshr>:<N>:<merge>,<mq> | none}
-gpgpu_cache:dl1PrefL1                 none # per-shader L1 data cache config  {<nsets>:<bsize>:<assoc>,<rep>:<wr>:<alloc>:<wr_alloc>,<mshr>:<N>:<merge>,<mq> | none}
-gpgpu_cache:dl1PreShared                 none # per-shader L1 data cache config  {<nsets>:<bsize>:<assoc>,<rep>:<wr>:<alloc>:<wr_alloc>,<mshr>:<N>:<merge>,<mq> | none}
-gmem_skip_L1D                          0 # global memory access skip L1D cache (implements -Xptxas -dlcm=cg, default=no skip)
-gpgpu_perfect_mem                      0 # enable perfect memory mode (no cache miss)
-n_regfile_gating_group                    4 # group of lanes that should be read/written together)
-gpgpu_clock_gated_reg_file                    0 # enable clock gated reg file for power calculations
-gpgpu_clock_gated_lanes                    0 # enable clock gated lanes for power calculations
-gpgpu_shader_registers                32768 # Number of registers per shader core. Limits number of concurrent CTAs. (default 8192)
-gpgpu_shader_cta                       8 # Maximum number of concurrent CTAs in shader (default 8)
-gpgpu_num_cta_barriers                   16 # Maximum number of named barriers per CTA (default 16)
-gpgpu_n_clusters                      15 # number of processing clusters
-gpgpu_n_cores_per_cluster                    1 # number of simd cores per cluster
-gpgpu_n_cluster_ejection_buffer_size                    8 # number of packets in ejection buffer
-gpgpu_n_ldst_response_buffer_size                    2 # number of response packets in ld/st unit ejection buffer
-gpgpu_shmem_size                   16384 # Size of shared memory per shader core (default 16kB)
-gpgpu_shmem_size                   49152 # Size of shared memory per shader core (default 16kB)
-gpgpu_shmem_size_PrefL1                16384 # Size of shared memory per shader core (default 16kB)
-gpgpu_shmem_size_PrefShared                16384 # Size of shared memory per shader core (default 16kB)
-gpgpu_shmem_num_banks                   32 # Number of banks in the shared memory in each shader core (default 16)
-gpgpu_shmem_limited_broadcast                    0 # Limit shared memory to do one broadcast per cycle (default on)
-gpgpu_shmem_warp_parts                    1 # Number of portions a warp is divided into for shared memory bank conflict check 
-gpgpu_warpdistro_shader                   -1 # Specify which shader core to collect the warp size distribution from
-gpgpu_warp_issue_shader                    0 # Specify which shader core to collect the warp issue distribution from
-gpgpu_local_mem_map                    1 # Mapping from local memory space address to simulated GPU physical address space (default = enabled)
-gpgpu_num_reg_banks                   16 # Number of register banks (default = 8)
-gpgpu_reg_bank_use_warp_id                    0 # Use warp ID in mapping registers to banks (default = off)
-gpgpu_operand_collector_num_units_sp                    6 # number of collector units (default = 4)
-gpgpu_operand_collector_num_units_sfu                    8 # number of collector units (default = 4)
-gpgpu_operand_collector_num_units_mem                    2 # number of collector units (default = 2)
-gpgpu_operand_collector_num_units_gen                    0 # number of collector units (default = 0)
-gpgpu_operand_collector_num_in_ports_sp                    2 # number of collector unit in ports (default = 1)
-gpgpu_operand_collector_num_in_ports_sfu                    1 # number of collector unit in ports (default = 1)
-gpgpu_operand_collector_num_in_ports_mem                    1 # number of collector unit in ports (default = 1)
-gpgpu_operand_collector_num_in_ports_gen                    0 # number of collector unit in ports (default = 0)
-gpgpu_operand_collector_num_out_ports_sp                    2 # number of collector unit in ports (default = 1)
-gpgpu_operand_collector_num_out_ports_sfu                    1 # number of collector unit in ports (default = 1)
-gpgpu_operand_collector_num_out_ports_mem                    1 # number of collector unit in ports (default = 1)
-gpgpu_operand_collector_num_out_ports_gen                    0 # number of collector unit in ports (default = 0)
-gpgpu_coalesce_arch                   13 # Coalescing arch (default = 13, anything else is off for now)
-gpgpu_num_sched_per_core                    1 # Number of warp schedulers per core
-gpgpu_max_insn_issue_per_warp                    1 # Max number of instructions that can be issued per warp in one cycle by scheduler
-gpgpu_simt_core_sim_order                    1 # Select the simulation order of cores in a cluster (0=Fix, 1=Round-Robin)
-gpgpu_pipeline_widths        2,1,1,2,1,1,2 # Pipeline widths ID_OC_SP,ID_OC_SFU,ID_OC_MEM,OC_EX_SP,OC_EX_SFU,OC_EX_MEM,EX_WB
-gpgpu_num_sp_units                     2 # Number of SP units (default=1)
-gpgpu_num_sfu_units                    1 # Number of SF units (default=1)
-gpgpu_num_mem_units                    1 # Number if ldst units (default=1) WARNING: not hooked up to anything
-gpgpu_scheduler                      gto # Scheduler configuration: < lrr | gto | two_level_active > If two_level_active:<num_active_warps>:<inner_prioritization>:<outer_prioritization>For complete list of prioritization values see shader.h enum scheduler_prioritization_typeDefault: gto
-gpgpu_dram_scheduler                    1 # 0 = fifo, 1 = FR-FCFS (defaul)
-gpgpu_dram_partition_queues              8:8:8:8 # i2$:$2d:d2$:$2i
-l2_ideal                               0 # Use a ideal L2 cache that always hit
-gpgpu_cache:dl2     64:128:8,L:B:m:W:L,A:32:4,4:0,32 # unified banked L2 data cache config  {<nsets>:<bsize>:<assoc>,<rep>:<wr>:<alloc>:<wr_alloc>,<mshr>:<N>:<merge>,<mq>}
-gpgpu_cache:dl2_texture_only                    0 # L2 cache used for texture only
-gpgpu_n_mem                            6 # number of memory modules (e.g. memory controllers) in gpu
-gpgpu_n_sub_partition_per_mchannel                    2 # number of memory subpartition in each memory module
-gpgpu_n_mem_per_ctrlr                    2 # number of memory chips per memory controller
-gpgpu_memlatency_stat                   14 # track and display latency statistics 0x2 enables MC, 0x4 enables queue logs
-gpgpu_frfcfs_dram_sched_queue_size                   16 # 0 = unlimited (default); # entries per chip
-gpgpu_dram_return_queue_size                  116 # 0 = unlimited (default); # entries per chip
-gpgpu_dram_buswidth                    4 # default = 4 bytes (8 bytes per cycle at DDR)
-gpgpu_dram_burst_length                    8 # Burst length of each DRAM request (default = 4 data bus cycle)
-dram_data_command_freq_ratio                    4 # Frequency ratio between DRAM data bus and command bus (default = 2 times, i.e. DDR)
-gpgpu_dram_timing_opt nbk=16:CCD=2:RRD=6:RCD=12:RAS=28:RP=12:RC=40: CL=12:WL=4:CDLR=5:WR=12:nbkgrp=4:CCDL=3:RTPL=2 # DRAM timing parameters = {nbk:tCCD:tRRD:tRCD:tRAS:tRP:tRC:CL:WL:tCDLR:tWR:nbkgrp:tCCDL:tRTPL}
-rop_latency                          120 # ROP queue latency (default 85)
-dram_latency                         100 # DRAM latency (default 30)
-gpgpu_mem_addr_mapping dramid@8;00000000.00000000.00000000.00000000.0000RRRR.RRRRRRRR.BBBCCCCB.CCSSSSSS # mapping memory address to dram model {dramid@<start bit>;<memory address map>}
-gpgpu_mem_addr_test                    0 # run sweep test to check address mapping for aliased address
-gpgpu_mem_address_mask                    1 # 0 = old addressing mask, 1 = new addressing mask, 2 = new add. mask + flipped bank sel and chip sel bits
-gpuwattch_xml_file  gpuwattch_gtx480.xml # GPUWattch XML file
-power_simulation_enabled                    1 # Turn on power simulator (1=On, 0=Off)
-power_per_cycle_dump                    0 # Dump detailed power output each cycle
-power_trace_enabled                    0 # produce a file for the power trace (1=On, 0=Off)
-power_trace_zlevel                     6 # Compression level of the power trace output log (0=no comp, 9=highest)
-steady_power_levels_enabled                    0 # produce a file for the steady power levels (1=On, 0=Off)
-steady_state_definition                  8:4 # allowed deviation:number of samples
-gpgpu_max_cycle                        0 # terminates gpu simulation early (0 = no limit)
-gpgpu_max_insn                         0 # terminates gpu simulation early (0 = no limit)
-gpgpu_max_cta                          0 # terminates gpu simulation early (0 = no limit)
-gpgpu_runtime_stat                   500 # display runtime statistics such as dram utilization {<freq>:<flag>}
-liveness_message_freq                    1 # Minimum number of seconds between simulation liveness messages (0 = always print)
-gpgpu_flush_l1_cache                    0 # Flush L1 cache at the end of each kernel call
-gpgpu_flush_l2_cache                    0 # Flush L2 cache at the end of each kernel call
-gpgpu_deadlock_detect                    1 # Stop the simulation at deadlock (1=on (default), 0=off)
-gpgpu_ptx_instruction_classification                    0 # if enabled will classify ptx instruction types per kernel (Max 255 kernels now)
-gpgpu_ptx_sim_mode                     0 # Select between Performance (default) or Functional simulation (1)
-gpgpu_clock_domains 700.0:700.0:700.0:924.0 # Clock Domain Frequencies in MhZ {<Core Clock>:<ICNT Clock>:<L2 Clock>:<DRAM Clock>}
-gpgpu_max_concurrent_kernel                    8 # maximum kernels that can run concurrently on GPU
-gpgpu_cflog_interval                    0 # Interval between each snapshot in control flow logger
-visualizer_enabled                     0 # Turn on visualizer output (1=On, 0=Off)
-visualizer_outputfile                 NULL # Specifies the output log file for visualizer
-visualizer_zlevel                      6 # Compression level of the visualizer output log (0=no comp, 9=highest)
-trace_enabled                          0 # Turn on traces
-trace_components                    none # comma seperated list of traces to enable. Complete list found in trace_streams.tup. Default none
-trace_sampling_core                    0 # The core which is printed using CORE_DPRINTF. Default 0
-trace_sampling_memory_partition                   -1 # The memory partition which is printed using MEMPART_DPRINTF. Default -1 (i.e. all)
-enable_ptx_file_line_stats                    1 # Turn on PTX source line statistic profiling. (1 = On)
-ptx_line_stats_filename gpgpu_inst_stats.txt # Output file for PTX source line statistics.
-save_embedded_ptx                      0 # saves ptx files embedded in binary as <n>.ptx
-keep                                   0 # keep intermediate files created by GPGPU-Sim when interfacing with external programs
-gpgpu_ptx_save_converted_ptxplus                    0 # Saved converted ptxplus to a file
-ptx_opcode_latency_int         4,13,4,5,145 # Opcode latencies for integers <ADD,MAX,MUL,MAD,DIV>Default 1,1,19,25,145
-ptx_opcode_latency_fp          4,13,4,5,39 # Opcode latencies for single precision floating points <ADD,MAX,MUL,MAD,DIV>Default 1,1,1,1,30
-ptx_opcode_latency_dp         8,19,8,8,330 # Opcode latencies for double precision floating points <ADD,MAX,MUL,MAD,DIV>Default 8,8,8,8,335
-ptx_opcode_initiation_int            1,2,2,1,8 # Opcode initiation intervals for integers <ADD,MAX,MUL,MAD,DIV>Default 1,1,4,4,32
-ptx_opcode_initiation_fp            1,2,1,1,4 # Opcode initiation intervals for single precision floating points <ADD,MAX,MUL,MAD,DIV>Default 1,1,1,1,5
-ptx_opcode_initiation_dp         8,16,8,8,130 # Opcode initiation intervals for double precision floating points <ADD,MAX,MUL,MAD,DIV>Default 8,8,8,8,130
ESHA: SIMD Width was found to be : 32
DRAM Timing Options:
nbk                                    16 # number of banks
CCD                                     2 # column to column delay
RRD                                     6 # minimal delay between activation of rows in different banks
RCD                                    12 # row to column delay
RAS                                    28 # time needed to activate row
RP                                     12 # time needed to precharge (deactivate) row
RC                                     40 # row cycle time
CDLR                                    5 # switching from write to read (changes tWTR)
WR                                     12 # last data-in to row precharge
CL                                     12 # CAS latency
WL                                      4 # Write latency
nbkgrp                                  4 # number of bank groups
CCDL                                    3 # column to column delay between accesses to different bank groups
RTPL                                    2 # read to precharge delay between accesses to different bank groups
Total number of memory sub partition = 12
addr_dec_mask[CHIP]  = 0000000000000000 	high:64 low:0
addr_dec_mask[BK]    = 000000000000e100 	high:16 low:8
addr_dec_mask[ROW]   = 000000000fff0000 	high:28 low:16
addr_dec_mask[COL]   = 0000000000001eff 	high:13 low:0
addr_dec_mask[BURST] = 000000000000003f 	high:6 low:0
sub_partition_id_mask = 0000000000000100
GPGPU-Sim uArch: clock freqs: 700000000.000000:700000000.000000:700000000.000000:924000000.000000
GPGPU-Sim uArch: clock periods: 0.00000000142857142857:0.00000000142857142857:0.00000000142857142857:0.00000000108225108225
ESHA_CHANGED: in shader config simd is  32 
*** Initializing Memory Statistics ***
GPGPU-Sim uArch: interconnect node map (shaderID+MemID to icntID)
GPGPU-Sim uArch: Memory nodes ID start from index: 15
GPGPU-Sim uArch:    0   1   2   3   4
GPGPU-Sim uArch:    5   6   7   8   9
GPGPU-Sim uArch:   10  11  12  13  14
GPGPU-Sim uArch:   15  16  17  18  19
GPGPU-Sim uArch:   20  21  22  23  24
GPGPU-Sim uArch:   25  26
GPGPU-Sim uArch: interconnect node reverse map (icntID to shaderID+MemID)
GPGPU-Sim uArch: Memory nodes start from ID: 15
GPGPU-Sim uArch:    0   1   2   3   4
GPGPU-Sim uArch:    5   6   7   8   9
GPGPU-Sim uArch:   10  11  12  13  14
GPGPU-Sim uArch:   15  16  17  18  19
GPGPU-Sim uArch:   20  21  22  23  24
GPGPU-Sim uArch:   25  26
9cc7108f859c9baa761a0b9b30f409e2  /home/kishore/project_source/gpu_class_proj/gpgpusim-benchmarks-master/bin/release/BFS
GPGPU-Sim uArch: performance model initialization complete.
GPGPU-Sim PTX: __cudaRegisterFatBinary, fat_cubin_handle = 1, filename=bfs.cu
self exe links to: /home/kishore/project_source/gpu_class_proj/gpgpusim-benchmarks-master/bin/release/BFS
Running md5sum using "md5sum /home/kishore/project_source/gpu_class_proj/gpgpusim-benchmarks-master/bin/release/BFS "
Running cuobjdump using "$CUDA_INSTALL_PATH/bin/cuobjdump -ptx -elf -sass /home/kishore/project_source/gpu_class_proj/gpgpusim-benchmarks-master/bin/release/BFS > _cuobjdump_complete_output_5kq0n9"
Parsing file _cuobjdump_complete_output_5kq0n9
######### cuobjdump parser ########
## Adding new section PTX
Adding ptx filename: _cuobjdump_1.ptx
Adding arch: sm_10
Adding identifier: bfs.cu
## Adding new section ELF
Adding arch: sm_10
Adding identifier: bfs.cu
## Adding new section ELF
Adding arch: sm_20
Adding identifier: bfs.cu
## Adding new section PTX
Adding ptx filename: _cuobjdump_2.ptx
Adding arch: sm_20
Adding identifier: bfs.cu
Done parsing!!!
GPGPU-Sim PTX: __cudaRegisterFunction _Z6KernelP4NodePiPbS2_S1_S2_i : hostFun 0x0x403820, fat_cubin_handle = 1
GPGPU-Sim PTX: instruction assembly for function '_Z6KernelP4NodePiPbS2_S1_S2_i'...   done.
GPGPU-Sim PTX: finding reconvergence points for '_Z6KernelP4NodePiPbS2_S1_S2_i'...
GPGPU-Sim PTX: Finding dominators for '_Z6KernelP4NodePiPbS2_S1_S2_i'...
GPGPU-Sim PTX: Finding immediate dominators for '_Z6KernelP4NodePiPbS2_S1_S2_i'...
GPGPU-Sim PTX: Finding postdominators for '_Z6KernelP4NodePiPbS2_S1_S2_i'...
GPGPU-Sim PTX: Finding immediate postdominators for '_Z6KernelP4NodePiPbS2_S1_S2_i'...
GPGPU-Sim PTX: pre-decoding instructions for '_Z6KernelP4NodePiPbS2_S1_S2_i'...
GPGPU-Sim PTX: reconvergence points for _Z6KernelP4NodePiPbS2_S1_S2_i...
GPGPU-Sim PTX:  1 (potential) branch divergence @  PC=0x030 (_1.ptx:72) @%p1 bra $Lt_0_5122;
GPGPU-Sim PTX:    immediate post dominator      @  PC=0x1e8 (_1.ptx:141) exit;
GPGPU-Sim PTX:  2 (potential) branch divergence @  PC=0x068 (_1.ptx:79) @%p2 bra $Lt_0_5122;
GPGPU-Sim PTX:    immediate post dominator      @  PC=0x1e8 (_1.ptx:141) exit;
GPGPU-Sim PTX:  3 (potential) branch divergence @  PC=0x0e0 (_1.ptx:97) @%p3 bra $Lt_0_5122;
GPGPU-Sim PTX:    immediate post dominator      @  PC=0x1e8 (_1.ptx:141) exit;
GPGPU-Sim PTX:  4 (potential) branch divergence @  PC=0x138 (_1.ptx:111) @%p4 bra $Lt_0_4354;
GPGPU-Sim PTX:    immediate post dominator      @  PC=0x1c8 (_1.ptx:134) add.s32 %r11, %r11, 1;
GPGPU-Sim PTX:  5 (potential) branch divergence @  PC=0x1e0 (_1.ptx:137) @%p5 bra $Lt_0_4098;
GPGPU-Sim PTX:    immediate post dominator      @  PC=0x1e8 (_1.ptx:141) exit;
GPGPU-Sim PTX: ... end of reconvergence points for _Z6KernelP4NodePiPbS2_S1_S2_i
GPGPU-Sim PTX: ... done pre-decoding instructions for '_Z6KernelP4NodePiPbS2_S1_S2_i'.
GPGPU-Sim PTX: finished parsing EMBEDDED .ptx file _1.ptx
Adding _cuobjdump_2.ptx with cubin handle 1
GPGPU-Sim PTX: extracting embedded .ptx to temporary file "_ptx_pQKUPk"
Running: cat _ptx_pQKUPk | sed 's/.version 1.5/.version 1.4/' | sed 's/, texmode_independent//' | sed 's/\(\.extern \.const\[1\] .b8 \w\+\)\[\]/\1\[1\]/' | sed 's/const\[.\]/const\[0\]/g' > _ptx2_ppQPhw
GPGPU-Sim PTX: generating ptxinfo using "$CUDA_INSTALL_PATH/bin/ptxas --gpu-name=sm_20 -v _ptx2_ppQPhw --output-file  /dev/null 2> _ptx_pQKUPkinfo"
GPGPU-Sim PTX: Kernel '_Z6KernelP4NodePiPbS2_S1_S2_i' : regs=18, lmem=0, smem=0, cmem=84
GPGPU-Sim PTX: removing ptxinfo using "rm -f _ptx_pQKUPk _ptx2_ppQPhw _ptx_pQKUPkinfo"
GPGPU-Sim PTX: loading globals with explicit initializers... 
GPGPU-Sim PTX: finished loading globals (0 bytes total).
GPGPU-Sim PTX: loading constants with explicit initializers...  done.
Reading File
Input file: ./data/graph4096.txt
Read File
Copied Everything to GPU memory

GPGPU-Sim PTX: cudaLaunch for 0x0x403820 (mode=performance simulation) on stream 0
GPGPU-Sim PTX: pushing kernel '_Z6KernelP4NodePiPbS2_S1_S2_i' to stream 0, gridDim= (16,1,1) blockDim = (256,1,1) 
kernel '_Z6KernelP4NodePiPbS2_S1_S2_i' transfer to GPU hardware scheduler
GPGPU-Sim uArch: Shader 1 bind to kernel 1 '_Z6KernelP4NodePiPbS2_S1_S2_i'
GPGPU-Sim uArch: CTA/core = 6, limited by: threads regs
GPGPU-Sim uArch: core:  1, cta: 0 initialized @(1,0)
GPGPU-Sim uArch: Shader 2 bind to kernel 1 '_Z6KernelP4NodePiPbS2_S1_S2_i'
GPGPU-Sim uArch: core:  2, cta: 0 initialized @(1,0)
GPGPU-Sim uArch: Shader 3 bind to kernel 1 '_Z6KernelP4NodePiPbS2_S1_S2_i'
GPGPU-Sim uArch: core:  3, cta: 0 initialized @(1,0)
GPGPU-Sim uArch: Shader 4 bind to kernel 1 '_Z6KernelP4NodePiPbS2_S1_S2_i'
GPGPU-Sim uArch: core:  4, cta: 0 initialized @(1,0)
GPGPU-Sim uArch: Shader 5 bind to kernel 1 '_Z6KernelP4NodePiPbS2_S1_S2_i'
GPGPU-Sim uArch: core:  5, cta: 0 initialized @(1,0)
GPGPU-Sim uArch: Shader 6 bind to kernel 1 '_Z6KernelP4NodePiPbS2_S1_S2_i'
GPGPU-Sim uArch: core:  6, cta: 0 initialized @(1,0)
GPGPU-Sim uArch: Shader 7 bind to kernel 1 '_Z6KernelP4NodePiPbS2_S1_S2_i'
GPGPU-Sim uArch: core:  7, cta: 0 initialized @(1,0)
GPGPU-Sim uArch: Shader 8 bind to kernel 1 '_Z6KernelP4NodePiPbS2_S1_S2_i'
GPGPU-Sim uArch: core:  8, cta: 0 initialized @(1,0)
GPGPU-Sim uArch: Shader 9 bind to kernel 1 '_Z6KernelP4NodePiPbS2_S1_S2_i'
GPGPU-Sim uArch: core:  9, cta: 0 initialized @(1,0)
GPGPU-Sim uArch: Shader 10 bind to kernel 1 '_Z6KernelP4NodePiPbS2_S1_S2_i'
GPGPU-Sim uArch: core: 10, cta: 0 initialized @(1,0)
GPGPU-Sim uArch: Shader 11 bind to kernel 1 '_Z6KernelP4NodePiPbS2_S1_S2_i'
GPGPU-Sim uArch: core: 11, cta: 0 initialized @(1,0)
GPGPU-Sim uArch: Shader 12 bind to kernel 1 '_Z6KernelP4NodePiPbS2_S1_S2_i'
GPGPU-Sim uArch: core: 12, cta: 0 initialized @(1,0)
GPGPU-Sim uArch: Shader 13 bind to kernel 1 '_Z6KernelP4NodePiPbS2_S1_S2_i'
GPGPU-Sim uArch: core: 13, cta: 0 initialized @(1,0)
GPGPU-Sim uArch: Shader 14 bind to kernel 1 '_Z6KernelP4NodePiPbS2_S1_S2_i'
GPGPU-Sim uArch: core: 14, cta: 0 initialized @(1,0)
GPGPU-Sim uArch: Shader 0 bind to kernel 1 '_Z6KernelP4NodePiPbS2_S1_S2_i'
GPGPU-Sim uArch: core:  0, cta: 0 initialized @(1,0)
GPGPU-Sim uArch: core:  1, cta: 1 initialized @(2,0)
GPGPU-Sim uArch: cycles simulated: 500  inst.: 16384 (ipc=32.8) sim_rate=16384 (inst/sec) elapsed = 0:0:00:01 / Mon May 11 17:35:32 2015
GPGPU-Sim uArch: cycles simulated: 1000  inst.: 53249 (ipc=53.2) sim_rate=26624 (inst/sec) elapsed = 0:0:00:02 / Mon May 11 17:35:33 2015
GPGPU-Sim uArch: Shader 2 finished CTA #0 (1174,0), 0 CTAs running
GPGPU-Sim uArch: Shader 2 empty (release kernel 1 '_Z6KernelP4NodePiPbS2_S1_S2_i').
GPGPU-Sim uArch: Shader 3 finished CTA #0 (1180,0), 0 CTAs running
GPGPU-Sim uArch: Shader 3 empty (release kernel 1 '_Z6KernelP4NodePiPbS2_S1_S2_i').
GPGPU-Sim uArch: Shader 4 finished CTA #0 (1186,0), 0 CTAs running
GPGPU-Sim uArch: Shader 4 empty (release kernel 1 '_Z6KernelP4NodePiPbS2_S1_S2_i').
GPGPU-Sim uArch: Shader 5 finished CTA #0 (1192,0), 0 CTAs running
GPGPU-Sim uArch: Shader 5 empty (release kernel 1 '_Z6KernelP4NodePiPbS2_S1_S2_i').
GPGPU-Sim uArch: Shader 0 finished CTA #0 (1198,0), 0 CTAs running
GPGPU-Sim uArch: Shader 0 empty (release kernel 1 '_Z6KernelP4NodePiPbS2_S1_S2_i').
GPGPU-Sim uArch: Shader 1 finished CTA #1 (1204,0), 1 CTAs running
GPGPU-Sim uArch: Shader 6 finished CTA #0 (1210,0), 0 CTAs running
GPGPU-Sim uArch: Shader 6 empty (release kernel 1 '_Z6KernelP4NodePiPbS2_S1_S2_i').
GPGPU-Sim uArch: Shader 7 finished CTA #0 (1216,0), 0 CTAs running
GPGPU-Sim uArch: Shader 7 empty (release kernel 1 '_Z6KernelP4NodePiPbS2_S1_S2_i').
GPGPU-Sim uArch: Shader 8 finished CTA #0 (1222,0), 0 CTAs running
GPGPU-Sim uArch: Shader 8 empty (release kernel 1 '_Z6KernelP4NodePiPbS2_S1_S2_i').
GPGPU-Sim uArch: Shader 9 finished CTA #0 (1228,0), 0 CTAs running
GPGPU-Sim uArch: Shader 9 empty (release kernel 1 '_Z6KernelP4NodePiPbS2_S1_S2_i').
GPGPU-Sim uArch: Shader 10 finished CTA #0 (1234,0), 0 CTAs running
GPGPU-Sim uArch: Shader 10 empty (release kernel 1 '_Z6KernelP4NodePiPbS2_S1_S2_i').
GPGPU-Sim uArch: Shader 13 finished CTA #0 (1240,0), 0 CTAs running
GPGPU-Sim uArch: Shader 13 empty (release kernel 1 '_Z6KernelP4NodePiPbS2_S1_S2_i').
GPGPU-Sim uArch: Shader 11 finished CTA #0 (1246,0), 0 CTAs running
GPGPU-Sim uArch: Shader 11 empty (release kernel 1 '_Z6KernelP4NodePiPbS2_S1_S2_i').
GPGPU-Sim uArch: Shader 14 finished CTA #0 (1252,0), 0 CTAs running
GPGPU-Sim uArch: Shader 14 empty (release kernel 1 '_Z6KernelP4NodePiPbS2_S1_S2_i').
GPGPU-Sim uArch: Shader 12 finished CTA #0 (1258,0), 0 CTAs running
GPGPU-Sim uArch: Shader 12 empty (release kernel 1 '_Z6KernelP4NodePiPbS2_S1_S2_i').
GPGPU-Sim uArch: cycles simulated: 5500  inst.: 57309 (ipc=10.4) sim_rate=19103 (inst/sec) elapsed = 0:0:00:03 / Mon May 11 17:35:34 2015
GPGPU-Sim uArch: Shader 1 finished CTA #0 (6538,0), 0 CTAs running
GPGPU-Sim uArch: Shader 1 empty (release kernel 1 '_Z6KernelP4NodePiPbS2_S1_S2_i').
GPGPU-Sim uArch: GPU detected kernel '_Z6KernelP4NodePiPbS2_S1_S2_i' finished on shader 1.
kernel_name = _Z6KernelP4NodePiPbS2_S1_S2_i 
kernel_launch_uid = 1 
gpu_sim_cycle = 6539
gpu_sim_insn = 57630
gpu_ipc =       8.8133
gpu_tot_sim_cycle = 6539
gpu_tot_sim_insn = 57630
gpu_tot_ipc =       8.8133
gpu_tot_issued_cta = 0
gpu_stall_dramfull = 283
gpu_stall_icnt2sh    = 148
gpu_total_sim_rate=19210

========= Core cache stats =========
L1I_cache:
	L1I_total_cache_accesses = 334
	L1I_total_cache_misses = 33
	L1I_total_cache_miss_rate = 0.0988
	L1I_total_cache_pending_hits = 0
	L1I_total_cache_reservation_fails = 0
L1D_cache:
	L1D_cache_core[0]: Access = 8, Miss = 2, Miss_rate = 0.250, Pending_hits = 6, Reservation_fails = 0
	L1D_cache_core[1]: Access = 100, Miss = 46, Miss_rate = 0.460, Pending_hits = 12, Reservation_fails = 0
	L1D_cache_core[2]: Access = 8, Miss = 2, Miss_rate = 0.250, Pending_hits = 6, Reservation_fails = 0
	L1D_cache_core[3]: Access = 8, Miss = 2, Miss_rate = 0.250, Pending_hits = 6, Reservation_fails = 0
	L1D_cache_core[4]: Access = 8, Miss = 2, Miss_rate = 0.250, Pending_hits = 6, Reservation_fails = 0
	L1D_cache_core[5]: Access = 8, Miss = 2, Miss_rate = 0.250, Pending_hits = 6, Reservation_fails = 0
	L1D_cache_core[6]: Access = 8, Miss = 2, Miss_rate = 0.250, Pending_hits = 6, Reservation_fails = 0
	L1D_cache_core[7]: Access = 8, Miss = 2, Miss_rate = 0.250, Pending_hits = 6, Reservation_fails = 0
	L1D_cache_core[8]: Access = 8, Miss = 2, Miss_rate = 0.250, Pending_hits = 6, Reservation_fails = 0
	L1D_cache_core[9]: Access = 8, Miss = 2, Miss_rate = 0.250, Pending_hits = 6, Reservation_fails = 0
	L1D_cache_core[10]: Access = 8, Miss = 2, Miss_rate = 0.250, Pending_hits = 6, Reservation_fails = 0
	L1D_cache_core[11]: Access = 8, Miss = 2, Miss_rate = 0.250, Pending_hits = 6, Reservation_fails = 0
	L1D_cache_core[12]: Access = 8, Miss = 2, Miss_rate = 0.250, Pending_hits = 6, Reservation_fails = 0
	L1D_cache_core[13]: Access = 8, Miss = 2, Miss_rate = 0.250, Pending_hits = 6, Reservation_fails = 0
	L1D_cache_core[14]: Access = 8, Miss = 2, Miss_rate = 0.250, Pending_hits = 6, Reservation_fails = 0
	L1D_total_cache_accesses = 212
	L1D_total_cache_misses = 74
	L1D_total_cache_miss_rate = 0.3491
	L1D_total_cache_pending_hits = 96
	L1D_total_cache_reservation_fails = 0
	L1D_cache_data_port_util = 0.002
	L1D_cache_fill_port_util = 0.002
L1C_cache:
	L1C_total_cache_accesses = 279
	L1C_total_cache_misses = 128
	L1C_total_cache_miss_rate = 0.4588
	L1C_total_cache_pending_hits = 0
	L1C_total_cache_reservation_fails = 0
L1T_cache:
	L1T_total_cache_accesses = 0
	L1T_total_cache_misses = 0
	L1T_total_cache_pending_hits = 0
	L1T_total_cache_reservation_fails = 0

Total_core_cache_stats:
	Total_core_cache_stats_breakdown[GLOBAL_ACC_R][HIT] = 39
	Total_core_cache_stats_breakdown[GLOBAL_ACC_R][HIT_RESERVED] = 96
	Total_core_cache_stats_breakdown[GLOBAL_ACC_R][MISS] = 45
	Total_core_cache_stats_breakdown[CONST_ACC_R][HIT] = 151
	Total_core_cache_stats_breakdown[CONST_ACC_R][MISS] = 128
	Total_core_cache_stats_breakdown[GLOBAL_ACC_W][HIT] = 3
	Total_core_cache_stats_breakdown[GLOBAL_ACC_W][MISS] = 29
	Total_core_cache_stats_breakdown[INST_ACC_R][HIT] = 301
	Total_core_cache_stats_breakdown[INST_ACC_R][MISS] = 33
Shader 0 warp_id issue ditsribution:
warp_id:
0, 
distro:
15, 
gpgpu_n_tot_thrd_icount = 137984
gpgpu_n_tot_w_icount = 539
gpgpu_n_stall_shd_mem = 336
gpgpu_n_mem_read_local = 0
gpgpu_n_mem_write_local = 0
gpgpu_n_mem_read_global = 45
gpgpu_n_mem_write_global = 32
gpgpu_n_mem_texture = 0
gpgpu_n_mem_const = 15
gpgpu_n_load_insn  = 4148
gpgpu_n_store_insn = 32
gpgpu_n_shmem_insn = 0
gpgpu_n_tex_insn = 0
gpgpu_n_const_mem_insn = 0
gpgpu_n_param_mem_insn = 8215
gpgpu_n_shmem_bkconflict = 0
gpgpu_n_cache_bkconflict = 0
gpgpu_n_intrawarp_mshr_merge = 0
gpgpu_n_cmem_portconflict = 224
gpgpu_stall_shd_mem[c_mem][bk_conf] = 224
gpgpu_stall_shd_mem[c_mem][mshr_rc] = 0
gpgpu_stall_shd_mem[c_mem][icnt_rc] = 0
gpgpu_stall_shd_mem[c_mem][data_port_stall] = 0
gpgpu_stall_shd_mem[t_mem][mshr_rc] = 0
gpgpu_stall_shd_mem[t_mem][icnt_rc] = 0
gpgpu_stall_shd_mem[t_mem][data_port_stall] = 0
gpgpu_stall_shd_mem[s_mem][bk_conf] = 0
gpgpu_stall_shd_mem[gl_mem][bk_conf] = 0
gpgpu_stall_shd_mem[gl_mem][coal_stall] = 112
gpgpu_stall_shd_mem[gl_mem][data_port_stall] = 0
gpgpu_stall_shd_mem[g_mem_ld][mshr_rc] = 0
gpgpu_stall_shd_mem[g_mem_ld][icnt_rc] = 0
gpgpu_stall_shd_mem[g_mem_ld][wb_icnt_rc] = 0
gpgpu_stall_shd_mem[g_mem_ld][wb_rsrv_fail] = 0
gpgpu_stall_shd_mem[g_mem_st][mshr_rc] = 0
gpgpu_stall_shd_mem[g_mem_st][icnt_rc] = 0
gpgpu_stall_shd_mem[g_mem_st][wb_icnt_rc] = 0
gpgpu_stall_shd_mem[g_mem_st][wb_rsrv_fail] = 0
gpgpu_stall_shd_mem[l_mem_ld][mshr_rc] = 0
gpgpu_stall_shd_mem[l_mem_ld][icnt_rc] = 0
gpgpu_stall_shd_mem[l_mem_ld][wb_icnt_rc] = 0
gpgpu_stall_shd_mem[l_mem_ld][wb_rsrv_fail] = 0
gpgpu_stall_shd_mem[l_mem_st][mshr_rc] = 0
gpgpu_stall_shd_mem[l_mem_st][icnt_rc] = 0
gpgpu_stall_shd_mem[l_mem_ld][wb_icnt_rc] = 0
gpgpu_stall_shd_mem[l_mem_ld][wb_rsrv_fail] = 0
gpu_reg_bank_conflict_stalls = 0
Warp Occupancy Distribution:
Stall:0	W0_Idle:9740	W0_Scoreboard:13310	W1:299	W2:0	W3:0	W4:0	W5:0	W6:0	W7:0	W8:0	W9:0	W10:0	W11:0	W12:0	W13:0	W14:0	W15:0	W16:0	W17:0	W18:0	W19:0	W20:0	W21:0	W22:0	W23:0	W24:0	W25:0	W26:0	W27:0	W28:0	W29:0	W30:0	W31:0	W32:0	W33:0	W34:0	W35:0	W36:0	W37:0	W38:0	W39:0	W40:0	W41:0	W42:0	W43:0	W44:0	W45:0	W46:0	W47:0	W48:0	W49:0	W50:0	W51:0	W52:0	W53:0	W54:0	W55:0	W56:0	W57:0	W58:0	W59:0	W60:0	W61:0	W62:0	W63:0	W64:0	W65:0	W66:0	W67:0	W68:0	W69:0	W70:0	W71:0	W72:0	W73:0	W74:0	W75:0	W76:0	W77:0	W78:0	W79:0	W80:0	W81:0	W82:0	W83:0	W84:0	W85:0	W86:0	W87:0	W88:0	W89:0	W90:0	W91:0	W92:0	W93:0	W94:0	W95:0	W96:0	W97:0	W98:0	W99:0	W100:0	W101:0	W102:0	W103:0	W104:0	W105:0	W106:0	W107:0	W108:0	W109:0	W110:0	W111:0	W112:0	W113:0	W114:0	W115:0	W116:0	W117:0	W118:0	W119:0	W120:0	W121:0	W122:0	W123:0	W124:0	W125:0	W126:0	W127:0	W128:0	W129:0	W130:0	W131:0	W132:0	W133:0	W134:0	W135:0	W136:0	W137:0	W138:0	W139:0	W140:0	W141:0	W142:0	W143:0	W144:0	W145:0	W146:0	W147:0	W148:0	W149:0	W150:0	W151:0	W152:0	W153:0	W154:0	W155:0	W156:0	W157:0	W158:0	W159:0	W160:0	W161:0	W162:0	W163:0	W164:0	W165:0	W166:0	W167:0	W168:0	W169:0	W170:0	W171:0	W172:0	W173:0	W174:0	W175:0	W176:0	W177:0	W178:0	W179:0	W180:0	W181:0	W182:0	W183:0	W184:0	W185:0	W186:0	W187:0	W188:0	W189:0	W190:0	W191:0	W192:0	W193:0	W194:0	W195:0	W196:0	W197:0	W198:0	W199:0	W200:0	W201:0	W202:0	W203:0	W204:0	W205:0	W206:0	W207:0	W208:0	W209:0	W210:0	W211:0	W212:0	W213:0	W214:0	W215:0	W216:0	W217:0	W218:0	W219:0	W220:0	W221:0	W222:0	W223:0	W224:0	W225:0	W226:0	W227:0	W228:0	W229:0	W230:0	W231:0	W232:0	W233:0	W234:0	W235:0	W236:0	W237:0	W238:0	W239:0	W240:0	W241:0	W242:0	W243:0	W244:0	W245:0	W246:0	W247:0	W248:0	W249:0	W250:0	W251:0	W252:0	W253:0	W254:0	W255:0	W256:240
traffic_breakdown_coretomem[CONST_ACC_R] = 120 {8:15,}
traffic_breakdown_coretomem[GLOBAL_ACC_R] = 360 {8:45,}
traffic_breakdown_coretomem[GLOBAL_ACC_W] = 1280 {40:32,}
traffic_breakdown_coretomem[INST_ACC_R] = 256 {8:32,}
traffic_breakdown_memtocore[CONST_ACC_R] = 1080 {72:15,}
traffic_breakdown_memtocore[GLOBAL_ACC_R] = 6120 {136:45,}
traffic_breakdown_memtocore[GLOBAL_ACC_W] = 256 {8:32,}
traffic_breakdown_memtocore[INST_ACC_R] = 4352 {136:32,}
maxmrqlatency = 10 
maxdqlatency = 0 
maxmflatency = 282 
averagemflatency = 234 
max_icnt2mem_latency = 36 
max_icnt2sh_latency = 6538 
mrq_lat_table:60 	0 	0 	14 	0 	0 	0 	0 	0 	0 	0 	0 	0 	0 	0 	0 	0 	0 	0 	0 	0 	0 	0 	0 	0 	0 	0 	0 	0 	0 	0 	0 	
dq_lat_table:0 	0 	0 	0 	0 	0 	0 	0 	0 	0 	0 	0 	0 	0 	0 	0 	0 	0 	0 	0 	0 	0 	0 	0 	0 	0 	0 	0 	0 	0 	0 	0 	
mf_lat_table:0 	0 	0 	0 	0 	0 	0 	38 	54 	0 	0 	0 	0 	0 	0 	0 	0 	0 	0 	0 	0 	0 	0 	0 	0 	0 	0 	0 	0 	0 	0 	0 	
icnt2mem_lat_table:0 	0 	0 	113 	8 	3 	0 	0 	0 	0 	0 	0 	0 	0 	0 	0 	0 	0 	0 	0 	0 	0 	0 	0 	
icnt2sh_lat_table:0 	0 	0 	43 	17 	0 	0 	0 	0 	0 	2 	11 	19 	0 	0 	0 	0 	0 	0 	0 	0 	0 	0 	0 	
mf_lat_pw_table:0 	0 	0 	0 	0 	0 	0 	9 	3 	0 	0 	0 	0 	0 	0 	0 	0 	0 	0 	0 	0 	0 	0 	0 	0 	0 	0 	0 	0 	0 	0 	0 	
maximum concurrent accesses to same row:
dram[0]:         1         0         0         0         0         0         0         0         0         0         0         0         0         0         0         0 
dram[1]:         0         0         0         0         0         0         0         0         0         0         0         0         0         0         0         0 
dram[2]:         0         0         0         0         0         0         0         0         0         0         0         0         0         0         0         0 
dram[3]:         0         0         0         0         0         0         0         0         0         0         0         0         0         0         0         0 
dram[4]:         0         0         0         0         0         0         0         0         0         0         0         0         0         0         0         0 
dram[5]:         0         0         0         0         0         0         0         0         0         0         0         0         0         0         0         0 
maximum service time to same row:
dram[0]:       642         0         0         0         0         0         0         0         0         0       879       843         0         0         0         0 
dram[1]:      1131         0         0         0         0         0         0         0         0         0       882       847         0         0         0         0 
dram[2]:         0         0         0         0         0      1488         0         0         0         0       887       854         0         0         0         0 
dram[3]:         0         0         0         0         0         0         0         0         0         0       891       866         0         0         0         0 
dram[4]:         0         0         0         0         0         0      2062         0         0         0       860       871         0         0         0         0 
dram[5]:         0         0         0         0         0         0         0         0         0         0       863       875         0         0         0         0 
average row accesses per activate:
dram[0]:  1.000000      -nan      -nan      -nan      -nan      -nan      -nan      -nan      -nan      -nan  4.000000  6.000000      -nan      -nan      -nan      -nan 
dram[1]:  2.000000      -nan      -nan      -nan      -nan      -nan      -nan      -nan      -nan      -nan  7.000000  4.000000      -nan      -nan      -nan      -nan 
dram[2]:      -nan      -nan      -nan      -nan      -nan  1.000000      -nan      -nan      -nan      -nan  5.000000  5.000000      -nan      -nan      -nan      -nan 
dram[3]:      -nan      -nan      -nan      -nan      -nan      -nan      -nan      -nan      -nan      -nan  6.000000  8.000000      -nan      -nan      -nan      -nan 
dram[4]:      -nan      -nan      -nan      -nan      -nan      -nan  1.000000      -nan      -nan      -nan  7.000000  4.000000      -nan      -nan      -nan      -nan 
dram[5]:      -nan      -nan      -nan      -nan      -nan      -nan      -nan      -nan      -nan      -nan  6.000000  5.000000      -nan      -nan      -nan      -nan 
average row locality = 74/18 = 4.111111
number of total memory accesses made:
dram[0]:         0         0         0         0         0         0         0         0         0         0         0         0         0         0         0         0 
dram[1]:         0         0         0         0         0         0         0         0         0         0         0         0         0         0         0         0 
dram[2]:         0         0         0         0         0         0         0         0         0         0         0         0         0         0         0         0 
dram[3]:         0         0         0         0         0         0         0         0         0         0         0         0         0         0         0         0 
dram[4]:         0         0         0         0         0         0         0         0         0         0         0         0         0         0         0         0 
dram[5]:         0         0         0         0         0         0         0         0         0         0         0         0         0         0         0         0 
total accesses: 0
min_bank_accesses = 0!
min_chip_accesses = 0!
number of total read accesses:
dram[0]:         3         0         0         0         0         0         0         0         0         0         4         5         0         0         0         0 
dram[1]:         2         0         0         0         0         0         0         0         0         0         5         4         0         0         0         0 
dram[2]:         0         0         0         0         0         1         0         0         0         0         4         4         0         0         0         0 
dram[3]:         0         0         0         0         0         0         0         0         0         0         4         5         0         0         0         0 
dram[4]:         0         0         0         0         0         0         1         0         0         0         6         4         0         0         0         0 
dram[5]:         0         0         0         0         0         0         0         0         0         0         6         4         0         0         0         0 
total reads: 62
min_bank_accesses = 0!
chip skew: 12/9 = 1.33
number of total write accesses:
dram[0]:         0         0         0         0         0         0         0         0         0         0         0         1         0         0         0         0 
dram[1]:         0         0         0         0         0         0         0         0         0         0         2         0         0         0         0         0 
dram[2]:         0         0         0         0         0         0         0         0         0         0         1         1         0         0         0         0 
dram[3]:         0         0         0         0         0         0         0         0         0         0         2         3         0         0         0         0 
dram[4]:         0         0         0         0         0         0         0         0         0         0         1         0         0         0         0         0 
dram[5]:         0         0         0         0         0         0         0         0         0         0         0         1         0         0         0         0 
total reads: 12
min_bank_accesses = 0!
chip skew: 5/1 = 5.00
average mf latency per bank:
dram[0]:       1300    none      none      none      none      none      none      none      none      none         299       268    none      none      none      none  
dram[1]:          0    none      none      none      none      none      none      none      none      none         224       301    none      none      none      none  
dram[2]:     none      none      none      none      none         268    none      none      none      none         208       236    none      none      none      none  
dram[3]:     none      none      none      none      none      none      none      none      none      none         171       177    none      none      none      none  
dram[4]:     none      none      none      none      none      none         268    none      none      none         445       299    none      none      none      none  
dram[5]:     none      none      none      none      none      none      none      none      none      none         262       208    none      none      none      none  
maximum mf latency per bank:
dram[0]:        278         0         0         0         0         0         0         0         0         0       270       274         0         0         0         0
dram[1]:          0         0         0         0         0         0         0         0         0         0       270       270         0         0         0         0
dram[2]:          0         0         0         0         0       268         0         0         0         0       270       270         0         0         0         0
dram[3]:          0         0         0         0         0         0         0         0         0         0       270       270         0         0         0         0
dram[4]:          0         0         0         0         0         0       268         0         0         0       282       271         0         0         0         0
dram[5]:          0         0         0         0         0         0         0         0         0         0       270       270         0         0         0         0

Number of Memory Banks Accessed per Memory Operation per Warp (from 0):
0	0	0	0	0	0	0	0	0	0	0	0	0	0	0	0	0	0	0	0	0	0	0	0	0	0	0	0	0	0	0	0	0	0	0	0	0	0	0	0	0	0	0	0	0	0	0	0	0	0	0	0	0	0	0	0	0	0	0	0	0	0	0	0	0	0	0	0	0	0	0	0	0	0	0	0	0	0	0	0	0	0	0	0	0	0	0	0	0	0	0	0	0	0	0	0	
Average # of Memory Banks Accessed per Memory Operation per Warp=-nan

position of mrq chosen
0	0	0	0	0	0	0	0	0	0	0	0	0	0	0	0	

average position of mrq chosen = -nan
Memory Partition 0: 
Cache L2_bank_000:
MSHR contents

Cache L2_bank_001:
MSHR contents

In Dram Latency Queue (total = 0): 
DRAM[0]: 16 bks, busW=4 BL=8 CL=12, tRRD=2 tCCD=6, tRCD=12 tRAS=28 tRP=12 tRC=40
n_cmd=8631 n_nop=8599 n_act=5 n_pre=2 n_req=13 n_rd=24 n_write=1 bw_util=0.005793
n_activity=285 dram_eff=0.1754
bk0: 6a 8558i bk1: 0a 8628i bk2: 0a 8630i bk3: 0a 8630i bk4: 0a 8630i bk5: 0a 8631i bk6: 0a 8633i bk7: 0a 8633i bk8: 0a 8633i bk9: 0a 8633i bk10: 8a 8602i bk11: 10a 8582i bk12: 0a 8629i bk13: 0a 8630i bk14: 0a 8630i bk15: 0a 8630i 
dram_util_bins: 0 0 0 0 0 0 0 0 0 0
dram_eff_bins: 0 0 0 0 0 0 0 0 0 0
mrqq: max=3 avg=0.00544549
Memory Partition 1: 
Cache L2_bank_002:
MSHR contents

Cache L2_bank_003:
MSHR contents

In Dram Latency Queue (total = 0): 
DRAM[1]: 16 bks, busW=4 BL=8 CL=12, tRRD=2 tCCD=6, tRCD=12 tRAS=28 tRP=12 tRC=40
n_cmd=8631 n_nop=8604 n_act=3 n_pre=0 n_req=13 n_rd=22 n_write=2 bw_util=0.005561
n_activity=209 dram_eff=0.2297
bk0: 4a 8610i bk1: 0a 8630i bk2: 0a 8630i bk3: 0a 8630i bk4: 0a 8630i bk5: 0a 8631i bk6: 0a 8632i bk7: 0a 8633i bk8: 0a 8633i bk9: 0a 8633i bk10: 10a 8576i bk11: 8a 8599i bk12: 0a 8629i bk13: 0a 8630i bk14: 0a 8630i bk15: 0a 8630i 
dram_util_bins: 0 0 0 0 0 0 0 0 0 0
dram_eff_bins: 0 0 0 0 0 0 0 0 0 0
mrqq: max=1 avg=0.00243309
Memory Partition 2: 
Cache L2_bank_004:
MSHR contents

Cache L2_bank_005:
MSHR contents

In Dram Latency Queue (total = 0): 
DRAM[2]: 16 bks, busW=4 BL=8 CL=12, tRRD=2 tCCD=6, tRCD=12 tRAS=28 tRP=12 tRC=40
n_cmd=8631 n_nop=8608 n_act=3 n_pre=0 n_req=11 n_rd=18 n_write=2 bw_util=0.004634
n_activity=202 dram_eff=0.198
bk0: 0a 8631i bk1: 0a 8632i bk2: 0a 8632i bk3: 0a 8632i bk4: 0a 8632i bk5: 2a 8615i bk6: 0a 8630i bk7: 0a 8631i bk8: 0a 8632i bk9: 0a 8632i bk10: 8a 8591i bk11: 8a 8589i bk12: 0a 8628i bk13: 0a 8629i bk14: 0a 8630i bk15: 0a 8631i 
dram_util_bins: 0 0 0 0 0 0 0 0 0 0
dram_eff_bins: 0 0 0 0 0 0 0 0 0 0
mrqq: max=1 avg=0.00243309
Memory Partition 3: 
Cache L2_bank_006:
MSHR contents
MSHR: tag=0x80022300, atomic=0 1 entries : 0x7fb3a5017d00 :  mf: uid=   837, sid01:w00, part=3, addr=0x80022300, load , size=32, unknown  status = IN_PARTITION_DRAM (6536), 

Cache L2_bank_007:
MSHR contents

In Dram Latency Queue (total = 0): 
DRAM[3]: 16 bks, busW=4 BL=8 CL=12, tRRD=2 tCCD=6, tRCD=12 tRAS=28 tRP=12 tRC=40
n_cmd=8631 n_nop=8606 n_act=2 n_pre=0 n_req=14 n_rd=18 n_write=5 bw_util=0.00533
n_activity=194 dram_eff=0.2371
bk0: 0a 8630i bk1: 0a 8631i bk2: 0a 8631i bk3: 0a 8631i bk4: 0a 8631i bk5: 0a 8631i bk6: 0a 8631i bk7: 0a 8632i bk8: 0a 8633i bk9: 0a 8633i bk10: 8a 8581i bk11: 10a 8564i bk12: 0a 8629i bk13: 0a 8629i bk14: 0a 8630i bk15: 0a 8630i 
dram_util_bins: 0 0 0 0 0 0 0 0 0 0
dram_eff_bins: 0 0 0 0 0 0 0 0 0 0
mrqq: max=1 avg=0.00243309
Memory Partition 4: 
Cache L2_bank_008:
MSHR contents

Cache L2_bank_009:
MSHR contents

In Dram Latency Queue (total = 0): 
DRAM[4]: 16 bks, busW=4 BL=8 CL=12, tRRD=2 tCCD=6, tRCD=12 tRAS=28 tRP=12 tRC=40
n_cmd=8631 n_nop=8605 n_act=3 n_pre=0 n_req=12 n_rd=22 n_write=1 bw_util=0.00533
n_activity=178 dram_eff=0.2584
bk0: 0a 8631i bk1: 0a 8632i bk2: 0a 8632i bk3: 0a 8632i bk4: 0a 8632i bk5: 0a 8633i bk6: 2a 8616i bk7: 0a 8631i bk8: 0a 8631i bk9: 0a 8631i bk10: 12a 8582i bk11: 8a 8598i bk12: 0a 8628i bk13: 0a 8629i bk14: 0a 8630i bk15: 0a 8630i 
dram_util_bins: 0 0 0 0 0 0 0 0 0 0
dram_eff_bins: 0 0 0 0 0 0 0 0 0 0
mrqq: max=1 avg=0.00266481
Memory Partition 5: 
Cache L2_bank_010:
MSHR contents

Cache L2_bank_011:
MSHR contents

In Dram Latency Queue (total = 0): 
DRAM[5]: 16 bks, busW=4 BL=8 CL=12, tRRD=2 tCCD=6, tRCD=12 tRAS=28 tRP=12 tRC=40
n_cmd=8631 n_nop=8608 n_act=2 n_pre=0 n_req=11 n_rd=20 n_write=1 bw_util=0.004866
n_activity=140 dram_eff=0.3
bk0: 0a 8630i bk1: 0a 8631i bk2: 0a 8631i bk3: 0a 8631i bk4: 0a 8631i bk5: 0a 8632i bk6: 0a 8632i bk7: 0a 8632i bk8: 0a 8632i bk9: 0a 8632i bk10: 12a 8593i bk11: 8a 8589i bk12: 0a 8630i bk13: 0a 8630i bk14: 0a 8630i bk15: 0a 8630i 
dram_util_bins: 0 0 0 0 0 0 0 0 0 0
dram_eff_bins: 0 0 0 0 0 0 0 0 0 0
mrqq: max=1 avg=0.00266481

========= L2 cache stats =========
L2_cache_bank[0]: Access = 36, Miss = 7, Miss_rate = 0.194, Pending_hits = 6, Reservation_fails = 225
L2_cache_bank[1]: Access = 7, Miss = 5, Miss_rate = 0.714, Pending_hits = 0, Reservation_fails = 0
L2_cache_bank[2]: Access = 23, Miss = 7, Miss_rate = 0.304, Pending_hits = 3, Reservation_fails = 104
L2_cache_bank[3]: Access = 5, Miss = 4, Miss_rate = 0.800, Pending_hits = 0, Reservation_fails = 0
L2_cache_bank[4]: Access = 4, Miss = 4, Miss_rate = 1.000, Pending_hits = 0, Reservation_fails = 0
L2_cache_bank[5]: Access = 6, Miss = 5, Miss_rate = 0.833, Pending_hits = 0, Reservation_fails = 0
L2_cache_bank[6]: Access = 4, Miss = 4, Miss_rate = 1.000, Pending_hits = 0, Reservation_fails = 0
L2_cache_bank[7]: Access = 6, Miss = 5, Miss_rate = 0.833, Pending_hits = 0, Reservation_fails = 0
L2_cache_bank[8]: Access = 18, Miss = 7, Miss_rate = 0.389, Pending_hits = 0, Reservation_fails = 0
L2_cache_bank[9]: Access = 5, Miss = 4, Miss_rate = 0.800, Pending_hits = 0, Reservation_fails = 0
L2_cache_bank[10]: Access = 6, Miss = 6, Miss_rate = 1.000, Pending_hits = 0, Reservation_fails = 0
L2_cache_bank[11]: Access = 4, Miss = 4, Miss_rate = 1.000, Pending_hits = 0, Reservation_fails = 0
L2_total_cache_accesses = 124
L2_total_cache_misses = 62
L2_total_cache_miss_rate = 0.5000
L2_total_cache_pending_hits = 9
L2_total_cache_reservation_fails = 329
L2_total_cache_breakdown:
	L2_cache_stats_breakdown[GLOBAL_ACC_R][MISS] = 45
	L2_cache_stats_breakdown[CONST_ACC_R][HIT] = 11
	L2_cache_stats_breakdown[CONST_ACC_R][HIT_RESERVED] = 3
	L2_cache_stats_breakdown[CONST_ACC_R][MISS] = 1
	L2_cache_stats_breakdown[CONST_ACC_R][RESERVATION_FAIL] = 109
	L2_cache_stats_breakdown[GLOBAL_ACC_W][HIT] = 20
	L2_cache_stats_breakdown[GLOBAL_ACC_W][MISS] = 12
	L2_cache_stats_breakdown[INST_ACC_R][HIT] = 22
	L2_cache_stats_breakdown[INST_ACC_R][HIT_RESERVED] = 6
	L2_cache_stats_breakdown[INST_ACC_R][MISS] = 4
	L2_cache_stats_breakdown[INST_ACC_R][RESERVATION_FAIL] = 220
L2_cache_data_port_util = 0.002
L2_cache_fill_port_util = 0.003

icnt_total_pkts_mem_to_simt=462
icnt_total_pkts_simt_to_mem=156
LD_mem_lat_dist  0 0 0 0 0 0 0 0 0 0 0 0 0 0 0 0 0 0 0 0 0 0 0 0 0 0 0
ST_mem_lat_dist  0 0 0 0 0 0 0 0 0 0 0 0 0 0 0 0 0 0 0 0 0 0 0 0 0 0 0
----------------------------Interconnect-DETAILS--------------------------------
Class 0:
Packet latency average = 10.25
	minimum = 6
	maximum = 34
Network latency average = 9.29839
	minimum = 6
	maximum = 34
Slowest packet = 14
Flit latency average = 7.92071
	minimum = 6
	maximum = 34
Slowest flit = 14
Fragmentation average = 0
	minimum = 0
	maximum = 0
Injected packet rate average = 0.00140468
	minimum = 0.000611714 (at node 19)
	maximum = 0.00825814 (at node 1)
Accepted packet rate average = 0.00140468
	minimum = 0.000611714 (at node 19)
	maximum = 0.00825814 (at node 1)
Injected flit rate average = 0.00350037
	minimum = 0.000764643 (at node 0)
	maximum = 0.0223276 (at node 15)
Accepted flit rate average= 0.00350037
	minimum = 0.000764643 (at node 19)
	maximum = 0.02141 (at node 1)
Injected packet length average = 2.49194
Accepted packet length average = 2.49194
Total in-flight flits = 0 (0 measured)
====== Overall Traffic Statistics ======
====== Traffic class 0 ======
Packet latency average = 10.25 (1 samples)
	minimum = 6 (1 samples)
	maximum = 34 (1 samples)
Network latency average = 9.29839 (1 samples)
	minimum = 6 (1 samples)
	maximum = 34 (1 samples)
Flit latency average = 7.92071 (1 samples)
	minimum = 6 (1 samples)
	maximum = 34 (1 samples)
Fragmentation average = 0 (1 samples)
	minimum = 0 (1 samples)
	maximum = 0 (1 samples)
Injected packet rate average = 0.00140468 (1 samples)
	minimum = 0.000611714 (1 samples)
	maximum = 0.00825814 (1 samples)
Accepted packet rate average = 0.00140468 (1 samples)
	minimum = 0.000611714 (1 samples)
	maximum = 0.00825814 (1 samples)
Injected flit rate average = 0.00350037 (1 samples)
	minimum = 0.000764643 (1 samples)
	maximum = 0.0223276 (1 samples)
Accepted flit rate average = 0.00350037 (1 samples)
	minimum = 0.000764643 (1 samples)
	maximum = 0.02141 (1 samples)
Injected packet size average = 2.49194 (1 samples)
Accepted packet size average = 2.49194 (1 samples)
Hops average = 1 (1 samples)
----------------------------END-of-Interconnect-DETAILS-------------------------


gpgpu_simulation_time = 0 days, 0 hrs, 0 min, 3 sec (3 sec)
gpgpu_simulation_rate = 19210 (inst/sec)
gpgpu_simulation_rate = 2179 (cycle/sec)
GPGPU-Sim: synchronize waiting for inactive GPU simulation
GPGPU-Sim API: Stream Manager State
GPGPU-Sim: detected inactive GPU simulation thread

GPGPU-Sim PTX: cudaLaunch for 0x0x403820 (mode=performance simulation) on stream 0
GPGPU-Sim PTX: pushing kernel '_Z6KernelP4NodePiPbS2_S1_S2_i' to stream 0, gridDim= (16,1,1) blockDim = (256,1,1) 
kernel '_Z6KernelP4NodePiPbS2_S1_S2_i' transfer to GPU hardware scheduler
GPGPU-Sim uArch: Shader 2 bind to kernel 2 '_Z6KernelP4NodePiPbS2_S1_S2_i'
GPGPU-Sim uArch: core:  2, cta: 0 initialized @(1,6539)
GPGPU-Sim uArch: Shader 3 bind to kernel 2 '_Z6KernelP4NodePiPbS2_S1_S2_i'
GPGPU-Sim uArch: core:  3, cta: 0 initialized @(1,6539)
GPGPU-Sim uArch: Shader 4 bind to kernel 2 '_Z6KernelP4NodePiPbS2_S1_S2_i'
GPGPU-Sim uArch: core:  4, cta: 0 initialized @(1,6539)
GPGPU-Sim uArch: Shader 5 bind to kernel 2 '_Z6KernelP4NodePiPbS2_S1_S2_i'
GPGPU-Sim uArch: core:  5, cta: 0 initialized @(1,6539)
GPGPU-Sim uArch: Shader 6 bind to kernel 2 '_Z6KernelP4NodePiPbS2_S1_S2_i'
GPGPU-Sim uArch: core:  6, cta: 0 initialized @(1,6539)
GPGPU-Sim uArch: Shader 7 bind to kernel 2 '_Z6KernelP4NodePiPbS2_S1_S2_i'
GPGPU-Sim uArch: core:  7, cta: 0 initialized @(1,6539)
GPGPU-Sim uArch: Shader 8 bind to kernel 2 '_Z6KernelP4NodePiPbS2_S1_S2_i'
GPGPU-Sim uArch: core:  8, cta: 0 initialized @(1,6539)
GPGPU-Sim uArch: Shader 9 bind to kernel 2 '_Z6KernelP4NodePiPbS2_S1_S2_i'
GPGPU-Sim uArch: core:  9, cta: 0 initialized @(1,6539)
GPGPU-Sim uArch: Shader 10 bind to kernel 2 '_Z6KernelP4NodePiPbS2_S1_S2_i'
GPGPU-Sim uArch: core: 10, cta: 0 initialized @(1,6539)
GPGPU-Sim uArch: Shader 11 bind to kernel 2 '_Z6KernelP4NodePiPbS2_S1_S2_i'
GPGPU-Sim uArch: core: 11, cta: 0 initialized @(1,6539)
GPGPU-Sim uArch: Shader 12 bind to kernel 2 '_Z6KernelP4NodePiPbS2_S1_S2_i'
GPGPU-Sim uArch: core: 12, cta: 0 initialized @(1,6539)
GPGPU-Sim uArch: Shader 13 bind to kernel 2 '_Z6KernelP4NodePiPbS2_S1_S2_i'
GPGPU-Sim uArch: core: 13, cta: 0 initialized @(1,6539)
GPGPU-Sim uArch: Shader 14 bind to kernel 2 '_Z6KernelP4NodePiPbS2_S1_S2_i'
GPGPU-Sim uArch: core: 14, cta: 0 initialized @(1,6539)
GPGPU-Sim uArch: Shader 0 bind to kernel 2 '_Z6KernelP4NodePiPbS2_S1_S2_i'
GPGPU-Sim uArch: core:  0, cta: 0 initialized @(1,6539)
GPGPU-Sim uArch: Shader 1 bind to kernel 2 '_Z6KernelP4NodePiPbS2_S1_S2_i'
GPGPU-Sim uArch: core:  1, cta: 0 initialized @(1,6539)
GPGPU-Sim uArch: core:  2, cta: 1 initialized @(2,6539)
GPGPU-Sim PTX: 100000 instructions simulated : ctaid=(4,0,0) tid=(116,0,0)
GPGPU-Sim uArch: Shader 5 finished CTA #0 (239,6539), 0 CTAs running
GPGPU-Sim uArch: Shader 5 empty (release kernel 2 '_Z6KernelP4NodePiPbS2_S1_S2_i').
GPGPU-Sim uArch: Shader 9 finished CTA #0 (239,6539), 0 CTAs running
GPGPU-Sim uArch: Shader 9 empty (release kernel 2 '_Z6KernelP4NodePiPbS2_S1_S2_i').
GPGPU-Sim uArch: Shader 12 finished CTA #0 (239,6539), 0 CTAs running
GPGPU-Sim uArch: Shader 12 empty (release kernel 2 '_Z6KernelP4NodePiPbS2_S1_S2_i').
GPGPU-Sim uArch: Shader 13 finished CTA #0 (239,6539), 0 CTAs running
GPGPU-Sim uArch: Shader 13 empty (release kernel 2 '_Z6KernelP4NodePiPbS2_S1_S2_i').
GPGPU-Sim uArch: Shader 3 finished CTA #0 (245,6539), 0 CTAs running
GPGPU-Sim uArch: Shader 3 empty (release kernel 2 '_Z6KernelP4NodePiPbS2_S1_S2_i').
GPGPU-Sim uArch: Shader 14 finished CTA #0 (245,6539), 0 CTAs running
GPGPU-Sim uArch: Shader 14 empty (release kernel 2 '_Z6KernelP4NodePiPbS2_S1_S2_i').
GPGPU-Sim uArch: Shader 0 finished CTA #0 (251,6539), 0 CTAs running
GPGPU-Sim uArch: Shader 0 empty (release kernel 2 '_Z6KernelP4NodePiPbS2_S1_S2_i').
GPGPU-Sim uArch: cycles simulated: 7039  inst.: 112750 (ipc=110.2) sim_rate=28187 (inst/sec) elapsed = 0:0:00:04 / Mon May 11 17:35:35 2015
GPGPU-Sim uArch: Shader 1 finished CTA #0 (2470,6539), 0 CTAs running
GPGPU-Sim uArch: Shader 1 empty (release kernel 2 '_Z6KernelP4NodePiPbS2_S1_S2_i').
GPGPU-Sim uArch: cycles simulated: 9039  inst.: 113985 (ipc=22.5) sim_rate=22797 (inst/sec) elapsed = 0:0:00:05 / Mon May 11 17:35:36 2015
GPGPU-Sim uArch: Shader 10 finished CTA #0 (3133,6539), 0 CTAs running
GPGPU-Sim uArch: Shader 10 empty (release kernel 2 '_Z6KernelP4NodePiPbS2_S1_S2_i').
GPGPU-Sim uArch: Shader 6 finished CTA #0 (3172,6539), 0 CTAs running
GPGPU-Sim uArch: Shader 6 empty (release kernel 2 '_Z6KernelP4NodePiPbS2_S1_S2_i').
GPGPU-Sim uArch: Shader 7 finished CTA #0 (3198,6539), 0 CTAs running
GPGPU-Sim uArch: Shader 7 empty (release kernel 2 '_Z6KernelP4NodePiPbS2_S1_S2_i').
GPGPU-Sim uArch: Shader 2 finished CTA #0 (3576,6539), 1 CTAs running
GPGPU-Sim uArch: Shader 11 finished CTA #0 (3939,6539), 0 CTAs running
GPGPU-Sim uArch: Shader 11 empty (release kernel 2 '_Z6KernelP4NodePiPbS2_S1_S2_i').
GPGPU-Sim uArch: Shader 2 finished CTA #1 (3985,6539), 0 CTAs running
GPGPU-Sim uArch: Shader 2 empty (release kernel 2 '_Z6KernelP4NodePiPbS2_S1_S2_i').
GPGPU-Sim uArch: Shader 8 finished CTA #0 (4323,6539), 0 CTAs running
GPGPU-Sim uArch: Shader 8 empty (release kernel 2 '_Z6KernelP4NodePiPbS2_S1_S2_i').
GPGPU-Sim uArch: Shader 4 finished CTA #0 (4555,6539), 0 CTAs running
GPGPU-Sim uArch: Shader 4 empty (release kernel 2 '_Z6KernelP4NodePiPbS2_S1_S2_i').
GPGPU-Sim uArch: GPU detected kernel '_Z6KernelP4NodePiPbS2_S1_S2_i' finished on shader 4.
kernel_name = _Z6KernelP4NodePiPbS2_S1_S2_i 
kernel_launch_uid = 2 
gpu_sim_cycle = 4556
gpu_sim_insn = 59234
gpu_ipc =      13.0013
gpu_tot_sim_cycle = 11095
gpu_tot_sim_insn = 116864
gpu_tot_ipc =      10.5330
gpu_tot_issued_cta = 0
gpu_stall_dramfull = 283
gpu_stall_icnt2sh    = 151
gpu_total_sim_rate=23372

========= Core cache stats =========
L1I_cache:
	L1I_total_cache_accesses = 1468
	L1I_total_cache_misses = 49
	L1I_total_cache_miss_rate = 0.0334
	L1I_total_cache_pending_hits = 0
	L1I_total_cache_reservation_fails = 0
L1D_cache:
	L1D_cache_core[0]: Access = 16, Miss = 4, Miss_rate = 0.250, Pending_hits = 12, Reservation_fails = 0
	L1D_cache_core[1]: Access = 146, Miss = 67, Miss_rate = 0.459, Pending_hits = 18, Reservation_fails = 0
	L1D_cache_core[2]: Access = 156, Miss = 72, Miss_rate = 0.462, Pending_hits = 18, Reservation_fails = 0
	L1D_cache_core[3]: Access = 16, Miss = 4, Miss_rate = 0.250, Pending_hits = 12, Reservation_fails = 0
	L1D_cache_core[4]: Access = 102, Miss = 46, Miss_rate = 0.451, Pending_hits = 12, Reservation_fails = 0
	L1D_cache_core[5]: Access = 16, Miss = 4, Miss_rate = 0.250, Pending_hits = 12, Reservation_fails = 0
	L1D_cache_core[6]: Access = 62, Miss = 29, Miss_rate = 0.468, Pending_hits = 12, Reservation_fails = 0
	L1D_cache_core[7]: Access = 54, Miss = 25, Miss_rate = 0.463, Pending_hits = 12, Reservation_fails = 0
	L1D_cache_core[8]: Access = 86, Miss = 41, Miss_rate = 0.477, Pending_hits = 12, Reservation_fails = 0
	L1D_cache_core[9]: Access = 16, Miss = 4, Miss_rate = 0.250, Pending_hits = 12, Reservation_fails = 0
	L1D_cache_core[10]: Access = 54, Miss = 25, Miss_rate = 0.463, Pending_hits = 12, Reservation_fails = 0
	L1D_cache_core[11]: Access = 105, Miss = 50, Miss_rate = 0.476, Pending_hits = 12, Reservation_fails = 0
	L1D_cache_core[12]: Access = 16, Miss = 4, Miss_rate = 0.250, Pending_hits = 12, Reservation_fails = 0
	L1D_cache_core[13]: Access = 16, Miss = 4, Miss_rate = 0.250, Pending_hits = 12, Reservation_fails = 0
	L1D_cache_core[14]: Access = 16, Miss = 4, Miss_rate = 0.250, Pending_hits = 12, Reservation_fails = 0
	L1D_total_cache_accesses = 877
	L1D_total_cache_misses = 383
	L1D_total_cache_miss_rate = 0.4367
	L1D_total_cache_pending_hits = 192
	L1D_total_cache_reservation_fails = 0
	L1D_cache_data_port_util = 0.006
	L1D_cache_fill_port_util = 0.003
L1C_cache:
	L1C_total_cache_accesses = 676
	L1C_total_cache_misses = 128
	L1C_total_cache_miss_rate = 0.1893
	L1C_total_cache_pending_hits = 0
	L1C_total_cache_reservation_fails = 0
L1T_cache:
	L1T_total_cache_accesses = 0
	L1T_total_cache_misses = 0
	L1T_total_cache_pending_hits = 0
	L1T_total_cache_reservation_fails = 0

Total_core_cache_stats:
	Total_core_cache_stats_breakdown[GLOBAL_ACC_R][HIT] = 285
	Total_core_cache_stats_breakdown[GLOBAL_ACC_R][HIT_RESERVED] = 192
	Total_core_cache_stats_breakdown[GLOBAL_ACC_R][MISS] = 171
	Total_core_cache_stats_breakdown[CONST_ACC_R][HIT] = 548
	Total_core_cache_stats_breakdown[CONST_ACC_R][MISS] = 128
	Total_core_cache_stats_breakdown[GLOBAL_ACC_W][HIT] = 17
	Total_core_cache_stats_breakdown[GLOBAL_ACC_W][MISS] = 212
	Total_core_cache_stats_breakdown[INST_ACC_R][HIT] = 1419
	Total_core_cache_stats_breakdown[INST_ACC_R][MISS] = 49
Shader 0 warp_id issue ditsribution:
warp_id:
0, 
distro:
30, 
gpgpu_n_tot_thrd_icount = 674304
gpgpu_n_tot_w_icount = 2634
gpgpu_n_stall_shd_mem = 701
gpgpu_n_mem_read_local = 0
gpgpu_n_mem_write_local = 0
gpgpu_n_mem_read_global = 171
gpgpu_n_mem_write_global = 229
gpgpu_n_mem_texture = 0
gpgpu_n_mem_const = 15
gpgpu_n_load_insn  = 8584
gpgpu_n_store_insn = 232
gpgpu_n_shmem_insn = 0
gpgpu_n_tex_insn = 0
gpgpu_n_const_mem_insn = 0
gpgpu_n_param_mem_insn = 16557
gpgpu_n_shmem_bkconflict = 0
gpgpu_n_cache_bkconflict = 0
gpgpu_n_intrawarp_mshr_merge = 0
gpgpu_n_cmem_portconflict = 448
gpgpu_stall_shd_mem[c_mem][bk_conf] = 448
gpgpu_stall_shd_mem[c_mem][mshr_rc] = 0
gpgpu_stall_shd_mem[c_mem][icnt_rc] = 0
gpgpu_stall_shd_mem[c_mem][data_port_stall] = 0
gpgpu_stall_shd_mem[t_mem][mshr_rc] = 0
gpgpu_stall_shd_mem[t_mem][icnt_rc] = 0
gpgpu_stall_shd_mem[t_mem][data_port_stall] = 0
gpgpu_stall_shd_mem[s_mem][bk_conf] = 0
gpgpu_stall_shd_mem[gl_mem][bk_conf] = 0
gpgpu_stall_shd_mem[gl_mem][coal_stall] = 253
gpgpu_stall_shd_mem[gl_mem][data_port_stall] = 0
gpgpu_stall_shd_mem[g_mem_ld][mshr_rc] = 0
gpgpu_stall_shd_mem[g_mem_ld][icnt_rc] = 0
gpgpu_stall_shd_mem[g_mem_ld][wb_icnt_rc] = 0
gpgpu_stall_shd_mem[g_mem_ld][wb_rsrv_fail] = 0
gpgpu_stall_shd_mem[g_mem_st][mshr_rc] = 0
gpgpu_stall_shd_mem[g_mem_st][icnt_rc] = 0
gpgpu_stall_shd_mem[g_mem_st][wb_icnt_rc] = 0
gpgpu_stall_shd_mem[g_mem_st][wb_rsrv_fail] = 0
gpgpu_stall_shd_mem[l_mem_ld][mshr_rc] = 0
gpgpu_stall_shd_mem[l_mem_ld][icnt_rc] = 0
gpgpu_stall_shd_mem[l_mem_ld][wb_icnt_rc] = 0
gpgpu_stall_shd_mem[l_mem_ld][wb_rsrv_fail] = 0
gpgpu_stall_shd_mem[l_mem_st][mshr_rc] = 0
gpgpu_stall_shd_mem[l_mem_st][icnt_rc] = 0
gpgpu_stall_shd_mem[l_mem_ld][wb_icnt_rc] = 0
gpgpu_stall_shd_mem[l_mem_ld][wb_rsrv_fail] = 0
gpu_reg_bank_conflict_stalls = 0
Warp Occupancy Distribution:
Stall:0	W0_Idle:13831	W0_Scoreboard:37611	W1:2029	W2:125	W3:0	W4:0	W5:0	W6:0	W7:0	W8:0	W9:0	W10:0	W11:0	W12:0	W13:0	W14:0	W15:0	W16:0	W17:0	W18:0	W19:0	W20:0	W21:0	W22:0	W23:0	W24:0	W25:0	W26:0	W27:0	W28:0	W29:0	W30:0	W31:0	W32:0	W33:0	W34:0	W35:0	W36:0	W37:0	W38:0	W39:0	W40:0	W41:0	W42:0	W43:0	W44:0	W45:0	W46:0	W47:0	W48:0	W49:0	W50:0	W51:0	W52:0	W53:0	W54:0	W55:0	W56:0	W57:0	W58:0	W59:0	W60:0	W61:0	W62:0	W63:0	W64:0	W65:0	W66:0	W67:0	W68:0	W69:0	W70:0	W71:0	W72:0	W73:0	W74:0	W75:0	W76:0	W77:0	W78:0	W79:0	W80:0	W81:0	W82:0	W83:0	W84:0	W85:0	W86:0	W87:0	W88:0	W89:0	W90:0	W91:0	W92:0	W93:0	W94:0	W95:0	W96:0	W97:0	W98:0	W99:0	W100:0	W101:0	W102:0	W103:0	W104:0	W105:0	W106:0	W107:0	W108:0	W109:0	W110:0	W111:0	W112:0	W113:0	W114:0	W115:0	W116:0	W117:0	W118:0	W119:0	W120:0	W121:0	W122:0	W123:0	W124:0	W125:0	W126:0	W127:0	W128:0	W129:0	W130:0	W131:0	W132:0	W133:0	W134:0	W135:0	W136:0	W137:0	W138:0	W139:0	W140:0	W141:0	W142:0	W143:0	W144:0	W145:0	W146:0	W147:0	W148:0	W149:0	W150:0	W151:0	W152:0	W153:0	W154:0	W155:0	W156:0	W157:0	W158:0	W159:0	W160:0	W161:0	W162:0	W163:0	W164:0	W165:0	W166:0	W167:0	W168:0	W169:0	W170:0	W171:0	W172:0	W173:0	W174:0	W175:0	W176:0	W177:0	W178:0	W179:0	W180:0	W181:0	W182:0	W183:0	W184:0	W185:0	W186:0	W187:0	W188:0	W189:0	W190:0	W191:0	W192:0	W193:0	W194:0	W195:0	W196:0	W197:0	W198:0	W199:0	W200:0	W201:0	W202:0	W203:0	W204:0	W205:0	W206:0	W207:0	W208:0	W209:0	W210:0	W211:0	W212:0	W213:0	W214:0	W215:0	W216:0	W217:0	W218:0	W219:0	W220:0	W221:0	W222:0	W223:0	W224:0	W225:0	W226:0	W227:0	W228:0	W229:0	W230:0	W231:0	W232:0	W233:0	W234:0	W235:0	W236:0	W237:0	W238:0	W239:0	W240:0	W241:0	W242:0	W243:0	W244:0	W245:0	W246:0	W247:0	W248:0	W249:0	W250:0	W251:0	W252:0	W253:0	W254:0	W255:0	W256:480
traffic_breakdown_coretomem[CONST_ACC_R] = 120 {8:15,}
traffic_breakdown_coretomem[GLOBAL_ACC_R] = 1368 {8:171,}
traffic_breakdown_coretomem[GLOBAL_ACC_W] = 9160 {40:229,}
traffic_breakdown_coretomem[INST_ACC_R] = 368 {8:46,}
traffic_breakdown_memtocore[CONST_ACC_R] = 1080 {72:15,}
traffic_breakdown_memtocore[GLOBAL_ACC_R] = 23256 {136:171,}
traffic_breakdown_memtocore[GLOBAL_ACC_W] = 1832 {8:229,}
traffic_breakdown_memtocore[INST_ACC_R] = 6256 {136:46,}
maxmrqlatency = 28 
maxdqlatency = 0 
maxmflatency = 282 
averagemflatency = 185 
max_icnt2mem_latency = 36 
max_icnt2sh_latency = 11094 
mrq_lat_table:174 	2 	3 	20 	2 	0 	0 	0 	0 	0 	0 	0 	0 	0 	0 	0 	0 	0 	0 	0 	0 	0 	0 	0 	0 	0 	0 	0 	0 	0 	0 	0 	
dq_lat_table:0 	0 	0 	0 	0 	0 	0 	0 	0 	0 	0 	0 	0 	0 	0 	0 	0 	0 	0 	0 	0 	0 	0 	0 	0 	0 	0 	0 	0 	0 	0 	0 	
mf_lat_table:0 	0 	0 	0 	0 	0 	0 	315 	100 	0 	0 	0 	0 	0 	0 	0 	0 	0 	0 	0 	0 	0 	0 	0 	0 	0 	0 	0 	0 	0 	0 	0 	
icnt2mem_lat_table:0 	0 	0 	448 	10 	3 	0 	0 	0 	0 	0 	0 	0 	0 	0 	0 	0 	0 	0 	0 	0 	0 	0 	0 	
icnt2sh_lat_table:0 	0 	0 	157 	29 	0 	0 	0 	0 	0 	2 	11 	42 	174 	0 	0 	0 	0 	0 	0 	0 	0 	0 	0 	
mf_lat_pw_table:0 	0 	0 	0 	0 	0 	0 	19 	3 	0 	0 	0 	0 	0 	0 	0 	0 	0 	0 	0 	0 	0 	0 	0 	0 	0 	0 	0 	0 	0 	0 	0 	
maximum concurrent accesses to same row:
dram[0]:         1         0         0         0         0         0         0         0         0         0         0         0         0         0         0         0 
dram[1]:         0         0         0         0         0         0         0         0         0         0         0         0         0         0         0         0 
dram[2]:         0         0         0         0         0         0         0         0         0         0         0         0         0         0         0         0 
dram[3]:         0         0         0         0         0         0         0         0         0         0         0         0         0         0         0         0 
dram[4]:         0         0         0         0         0         0         0         0         0         0         0         0         0         0         0         0 
dram[5]:         0         0         0         0         0         0         0         0         0         0         0         0         0         0         0         0 
maximum service time to same row:
dram[0]:       642         0         0         0       675       669         0         0         0         0       879       843         0         0         0         0 
dram[1]:      1131         0         0         0         0         0         0      1124      1118         0       882       847         0         0         0         0 
dram[2]:         0         0         0         0       687      1488       681         0      1119         0       887       854         0         0         0         0 
dram[3]:         0         0         0         0         0       663       526         0         0      1141       891       866         0         0         0         0 
dram[4]:         0         0         0         0         0         0      2062       697         0      2750       860       871         0         0         0         0 
dram[5]:         0         0         0         0         0         0         0       659      1135         0       863       875         0         0         0         0 
average row accesses per activate:
dram[0]:  1.000000      -nan      -nan      -nan  1.000000  1.000000      -nan      -nan      -nan      -nan 15.000000 16.000000      -nan      -nan      -nan      -nan 
dram[1]:  2.000000      -nan      -nan      -nan      -nan      -nan      -nan  1.000000  2.000000      -nan 12.000000  7.000000      -nan      -nan      -nan      -nan 
dram[2]:      -nan      -nan      -nan      -nan  2.000000  1.000000  1.000000      -nan  2.000000      -nan 25.000000 15.000000      -nan      -nan      -nan      -nan 
dram[3]:      -nan      -nan      -nan      -nan      -nan  1.000000  2.000000      -nan      -nan  1.000000 15.000000 12.000000      -nan      -nan      -nan      -nan 
dram[4]:      -nan      -nan      -nan      -nan      -nan      -nan  1.000000  3.000000      -nan  1.000000 18.000000 17.000000      -nan      -nan      -nan      -nan 
dram[5]:      -nan      -nan      -nan      -nan      -nan      -nan      -nan  1.000000  1.000000      -nan  8.000000 14.000000      -nan      -nan      -nan      -nan 
average row locality = 201/32 = 6.281250
number of total memory accesses made:
dram[0]:         0         0         0         0         0         0         0         0         0         0         0         0         0         0         0         0 
dram[1]:         0         0         0         0         0         0         0         0         0         0         0         0         0         0         0         0 
dram[2]:         0         0         0         0         0         0         0         0         0         0         0         0         0         0         0         0 
dram[3]:         0         0         0         0         0         0         0         0         0         0         0         0         0         0         0         0 
dram[4]:         0         0         0         0         0         0         0         0         0         0         0         0         0         0         0         0 
dram[5]:         0         0         0         0         0         0         0         0         0         0         0         0         0         0         0         0 
total accesses: 0
min_bank_accesses = 0!
min_chip_accesses = 0!
number of total read accesses:
dram[0]:         3         0         0         0         1         1         0         0         0         0        10        11         0         0         0         0 
dram[1]:         2         0         0         0         0         0         0         1         2         0         8         6         0         0         0         0 
dram[2]:         0         0         0         0         2         1         1         0         2         0        15        10         0         0         0         0 
dram[3]:         0         0         0         0         0         1         2         0         0         1         9         8         0         0         0         0 
dram[4]:         0         0         0         0         0         0         1         3         0         1        12        12         0         0         0         0 
dram[5]:         0         0         0         0         0         0         0         1         1         0         7        10         0         0         0         0 
total reads: 145
min_bank_accesses = 0!
chip skew: 31/19 = 1.63
number of total write accesses:
dram[0]:         0         0         0         0         0         0         0         0         0         0         5         5         0         0         0         0 
dram[1]:         0         0         0         0         0         0         0         0         0         0         4         1         0         0         0         0 
dram[2]:         0         0         0         0         0         0         0         0         0         0        10         5         0         0         0         0 
dram[3]:         0         0         0         0         0         0         0         0         0         0         6         4         0         0         0         0 
dram[4]:         0         0         0         0         0         0         0         0         0         0         6         5         0         0         0         0 
dram[5]:         0         0         0         0         0         0         0         0         0         0         1         4         0         0         0         0 
total reads: 56
min_bank_accesses = 0!
chip skew: 15/5 = 3.00
average mf latency per bank:
dram[0]:       1300    none      none      none         268       268    none      none      none      none         313       337    none      none      none      none  
dram[1]:          0    none      none      none      none      none      none         269       265    none         370       568    none      none      none      none  
dram[2]:     none      none      none      none         266       268       268    none         265    none         228       390    none      none      none      none  
dram[3]:     none      none      none      none      none         268       263    none      none         268       227       336    none      none      none      none  
dram[4]:     none      none      none      none      none      none         268       262    none         268       857       323    none      none      none      none  
dram[5]:     none      none      none      none      none      none      none         269       268    none         532       325    none      none      none      none  
maximum mf latency per bank:
dram[0]:        278         0         0         0       268       268         0         0         0         0       270       274         0         0         0         0
dram[1]:          0         0         0         0         0         0         0       269       268         0       270       270         0         0         0         0
dram[2]:          0         0         0         0       268       268       268         0       273         0       274       270         0         0         0         0
dram[3]:          0         0         0         0         0       268       268         0         0       268       270       270         0         0         0         0
dram[4]:          0         0         0         0         0         0       268       269         0       268       282       271         0         0         0         0
dram[5]:          0         0         0         0         0         0         0       269       268         0       270       270         0         0         0         0

Number of Memory Banks Accessed per Memory Operation per Warp (from 0):
0	0	0	0	0	0	0	0	0	0	0	0	0	0	0	0	0	0	0	0	0	0	0	0	0	0	0	0	0	0	0	0	0	0	0	0	0	0	0	0	0	0	0	0	0	0	0	0	0	0	0	0	0	0	0	0	0	0	0	0	0	0	0	0	0	0	0	0	0	0	0	0	0	0	0	0	0	0	0	0	0	0	0	0	0	0	0	0	0	0	0	0	0	0	0	0	
Average # of Memory Banks Accessed per Memory Operation per Warp=-nan

position of mrq chosen
0	0	0	0	0	0	0	0	0	0	0	0	0	0	0	0	

average position of mrq chosen = -nan
Memory Partition 0: 
Cache L2_bank_000:
MSHR contents

Cache L2_bank_001:
MSHR contents

In Dram Latency Queue (total = 0): 
DRAM[0]: 16 bks, busW=4 BL=8 CL=12, tRRD=2 tCCD=6, tRCD=12 tRAS=28 tRP=12 tRC=40
n_cmd=14644 n_nop=14573 n_act=7 n_pre=2 n_req=36 n_rd=52 n_write=10 bw_util=0.008468
n_activity=612 dram_eff=0.2026
bk0: 6a 14571i bk1: 0a 14641i bk2: 0a 14643i bk3: 0a 14644i bk4: 2a 14627i bk5: 2a 14628i bk6: 0a 14645i bk7: 0a 14646i bk8: 0a 14646i bk9: 0a 14646i bk10: 20a 14526i bk11: 22a 14530i bk12: 0a 14642i bk13: 0a 14643i bk14: 0a 14643i bk15: 0a 14643i 
dram_util_bins: 0 0 0 0 0 0 0 0 0 0
dram_eff_bins: 0 0 0 0 0 0 0 0 0 0
mrqq: max=3 avg=0.00416553
Memory Partition 1: 
Cache L2_bank_002:
MSHR contents

Cache L2_bank_003:
MSHR contents

In Dram Latency Queue (total = 0): 
DRAM[1]: 16 bks, busW=4 BL=8 CL=12, tRRD=2 tCCD=6, tRCD=12 tRAS=28 tRP=12 tRC=40
n_cmd=14644 n_nop=14596 n_act=5 n_pre=0 n_req=24 n_rd=38 n_write=5 bw_util=0.005873
n_activity=365 dram_eff=0.2356
bk0: 4a 14623i bk1: 0a 14643i bk2: 0a 14643i bk3: 0a 14643i bk4: 0a 14643i bk5: 0a 14644i bk6: 0a 14646i bk7: 2a 14629i bk8: 4a 14623i bk9: 0a 14644i bk10: 16a 14555i bk11: 12a 14593i bk12: 0a 14642i bk13: 0a 14643i bk14: 0a 14643i bk15: 0a 14643i 
dram_util_bins: 0 0 0 0 0 0 0 0 0 0
dram_eff_bins: 0 0 0 0 0 0 0 0 0 0
mrqq: max=1 avg=0.00150232
Memory Partition 2: 
Cache L2_bank_004:
MSHR contents

Cache L2_bank_005:
MSHR contents

In Dram Latency Queue (total = 0): 
DRAM[2]: 16 bks, busW=4 BL=8 CL=12, tRRD=2 tCCD=6, tRCD=12 tRAS=28 tRP=12 tRC=40
n_cmd=14644 n_nop=14561 n_act=6 n_pre=0 n_req=46 n_rd=62 n_write=15 bw_util=0.01052
n_activity=677 dram_eff=0.2275
bk0: 0a 14644i bk1: 0a 14645i bk2: 0a 14646i bk3: 0a 14647i bk4: 4a 14624i bk5: 2a 14628i bk6: 2a 14627i bk7: 0a 14642i bk8: 4a 14624i bk9: 0a 14643i bk10: 30a 14429i bk11: 20a 14512i bk12: 0a 14641i bk13: 0a 14642i bk14: 0a 14643i bk15: 0a 14644i 
dram_util_bins: 0 0 0 0 0 0 0 0 0 0
dram_eff_bins: 0 0 0 0 0 0 0 0 0 0
mrqq: max=4 avg=0.00901393
Memory Partition 3: 
Cache L2_bank_006:
MSHR contents

Cache L2_bank_007:
MSHR contents

In Dram Latency Queue (total = 0): 
DRAM[3]: 16 bks, busW=4 BL=8 CL=12, tRRD=2 tCCD=6, tRCD=12 tRAS=28 tRP=12 tRC=40
n_cmd=14644 n_nop=14587 n_act=5 n_pre=0 n_req=31 n_rd=42 n_write=10 bw_util=0.007102
n_activity=505 dram_eff=0.2059
bk0: 0a 14643i bk1: 0a 14644i bk2: 0a 14644i bk3: 0a 14645i bk4: 0a 14645i bk5: 2a 14628i bk6: 4a 14623i bk7: 0a 14645i bk8: 0a 14646i bk9: 2a 14630i bk10: 18a 14530i bk11: 16a 14540i bk12: 0a 14641i bk13: 0a 14642i bk14: 0a 14643i bk15: 0a 14643i 
dram_util_bins: 0 0 0 0 0 0 0 0 0 0
dram_eff_bins: 0 0 0 0 0 0 0 0 0 0
mrqq: max=1 avg=0.00225348
Memory Partition 4: 
Cache L2_bank_008:
MSHR contents

Cache L2_bank_009:
MSHR contents

In Dram Latency Queue (total = 0): 
DRAM[4]: 16 bks, busW=4 BL=8 CL=12, tRRD=2 tCCD=6, tRCD=12 tRAS=28 tRP=12 tRC=40
n_cmd=14644 n_nop=14570 n_act=5 n_pre=0 n_req=40 n_rd=58 n_write=11 bw_util=0.009424
n_activity=581 dram_eff=0.2375
bk0: 0a 14644i bk1: 0a 14645i bk2: 0a 14645i bk3: 0a 14646i bk4: 0a 14646i bk5: 0a 14647i bk6: 2a 14631i bk7: 6a 14619i bk8: 0a 14644i bk9: 2a 14627i bk10: 24a 14517i bk11: 24a 14509i bk12: 0a 14639i bk13: 0a 14641i bk14: 0a 14643i bk15: 0a 14643i 
dram_util_bins: 0 0 0 0 0 0 0 0 0 0
dram_eff_bins: 0 0 0 0 0 0 0 0 0 0
mrqq: max=2 avg=0.00320951
Memory Partition 5: 
Cache L2_bank_010:
MSHR contents

Cache L2_bank_011:
MSHR contents

In Dram Latency Queue (total = 0): 
DRAM[5]: 16 bks, busW=4 BL=8 CL=12, tRRD=2 tCCD=6, tRCD=12 tRAS=28 tRP=12 tRC=40
n_cmd=14644 n_nop=14597 n_act=4 n_pre=0 n_req=24 n_rd=38 n_write=5 bw_util=0.005873
n_activity=359 dram_eff=0.2396
bk0: 0a 14643i bk1: 0a 14644i bk2: 0a 14644i bk3: 0a 14644i bk4: 0a 14644i bk5: 0a 14645i bk6: 0a 14646i bk7: 2a 14629i bk8: 2a 14628i bk9: 0a 14643i bk10: 14a 14591i bk11: 20a 14546i bk12: 0a 14643i bk13: 0a 14643i bk14: 0a 14643i bk15: 0a 14643i 
dram_util_bins: 0 0 0 0 0 0 0 0 0 0
dram_eff_bins: 0 0 0 0 0 0 0 0 0 0
mrqq: max=1 avg=0.00157061

========= L2 cache stats =========
L2_cache_bank[0]: Access = 64, Miss = 14, Miss_rate = 0.219, Pending_hits = 6, Reservation_fails = 225
L2_cache_bank[1]: Access = 30, Miss = 12, Miss_rate = 0.400, Pending_hits = 0, Reservation_fails = 0
L2_cache_bank[2]: Access = 50, Miss = 12, Miss_rate = 0.240, Pending_hits = 3, Reservation_fails = 104
L2_cache_bank[3]: Access = 24, Miss = 7, Miss_rate = 0.292, Pending_hits = 0, Reservation_fails = 0
L2_cache_bank[4]: Access = 33, Miss = 20, Miss_rate = 0.606, Pending_hits = 1, Reservation_fails = 0
L2_cache_bank[5]: Access = 34, Miss = 11, Miss_rate = 0.324, Pending_hits = 0, Reservation_fails = 0
L2_cache_bank[6]: Access = 19, Miss = 11, Miss_rate = 0.579, Pending_hits = 0, Reservation_fails = 0
L2_cache_bank[7]: Access = 24, Miss = 10, Miss_rate = 0.417, Pending_hits = 0, Reservation_fails = 0
L2_cache_bank[8]: Access = 100, Miss = 13, Miss_rate = 0.130, Pending_hits = 1, Reservation_fails = 0
L2_cache_bank[9]: Access = 33, Miss = 16, Miss_rate = 0.485, Pending_hits = 0, Reservation_fails = 0
L2_cache_bank[10]: Access = 25, Miss = 8, Miss_rate = 0.320, Pending_hits = 0, Reservation_fails = 0
L2_cache_bank[11]: Access = 25, Miss = 11, Miss_rate = 0.440, Pending_hits = 0, Reservation_fails = 0
L2_total_cache_accesses = 461
L2_total_cache_misses = 145
L2_total_cache_miss_rate = 0.3145
L2_total_cache_pending_hits = 11
L2_total_cache_reservation_fails = 329
L2_total_cache_breakdown:
	L2_cache_stats_breakdown[GLOBAL_ACC_R][HIT] = 85
	L2_cache_stats_breakdown[GLOBAL_ACC_R][HIT_RESERVED] = 2
	L2_cache_stats_breakdown[GLOBAL_ACC_R][MISS] = 84
	L2_cache_stats_breakdown[CONST_ACC_R][HIT] = 11
	L2_cache_stats_breakdown[CONST_ACC_R][HIT_RESERVED] = 3
	L2_cache_stats_breakdown[CONST_ACC_R][MISS] = 1
	L2_cache_stats_breakdown[CONST_ACC_R][RESERVATION_FAIL] = 109
	L2_cache_stats_breakdown[GLOBAL_ACC_W][HIT] = 173
	L2_cache_stats_breakdown[GLOBAL_ACC_W][MISS] = 56
	L2_cache_stats_breakdown[INST_ACC_R][HIT] = 36
	L2_cache_stats_breakdown[INST_ACC_R][HIT_RESERVED] = 6
	L2_cache_stats_breakdown[INST_ACC_R][MISS] = 4
	L2_cache_stats_breakdown[INST_ACC_R][RESERVATION_FAIL] = 220
L2_cache_data_port_util = 0.005
L2_cache_fill_port_util = 0.004

icnt_total_pkts_mem_to_simt=1359
icnt_total_pkts_simt_to_mem=690
LD_mem_lat_dist  0 0 0 0 0 0 0 0 0 0 0 0 0 0 0 0 0 0 0 0 0 0 0 0 0 0 0
ST_mem_lat_dist  0 0 0 0 0 0 0 0 0 0 0 0 0 0 0 0 0 0 0 0 0 0 0 0 0 0 0
----------------------------Interconnect-DETAILS--------------------------------
Class 0:
Packet latency average = 7.50297
	minimum = 6
	maximum = 21
Network latency average = 7.38872
	minimum = 6
	maximum = 19
Slowest packet = 311
Flit latency average = 6.40461
	minimum = 6
	maximum = 15
[...]
traffic_breakdown_coretomem[CONST_ACC_R] = 120 {8:15,}
traffic_breakdown_coretomem[GLOBAL_ACC_R] = 59120 {8:7390,}
traffic_breakdown_coretomem[GLOBAL_ACC_W] = 668464 {40:15415,72:148,136:303,}
traffic_breakdown_coretomem[INST_ACC_R] = 480 {8:60,}
traffic_breakdown_memtocore[CONST_ACC_R] = 1080 {72:15,}
traffic_breakdown_memtocore[GLOBAL_ACC_R] = 1005040 {136:7390,}
traffic_breakdown_memtocore[GLOBAL_ACC_W] = 126928 {8:15866,}
traffic_breakdown_memtocore[INST_ACC_R] = 8160 {136:60,}
maxmrqlatency = 75 
maxdqlatency = 0 
maxmflatency = 744 
averagemflatency = 193 
max_icnt2mem_latency = 425 
max_icnt2sh_latency = 52465 
mrq_lat_table:1036 	106 	68 	95 	40 	13 	1 	0 	0 	0 	0 	0 	0 	0 	0 	0 	0 	0 	0 	0 	0 	0 	0 	0 	0 	0 	0 	0 	0 	0 	0 	0 	
dq_lat_table:0 	0 	0 	0 	0 	0 	0 	0 	0 	0 	0 	0 	0 	0 	0 	0 	0 	0 	0 	0 	0 	0 	0 	0 	0 	0 	0 	0 	0 	0 	0 	0 	
mf_lat_table:0 	0 	0 	0 	0 	0 	0 	20773 	2410 	88 	0 	0 	0 	0 	0 	0 	0 	0 	0 	0 	0 	0 	0 	0 	0 	0 	0 	0 	0 	0 	0 	0 	
icnt2mem_lat_table:0 	0 	0 	7411 	4394 	7946 	3509 	49 	22 	0 	0 	0 	0 	0 	0 	0 	0 	0 	0 	0 	0 	0 	0 	0 	
icnt2sh_lat_table:0 	0 	0 	2060 	2622 	2039 	661 	23 	0 	0 	2 	11 	42 	1131 	11433 	3247 	0 	0 	0 	0 	0 	0 	0 	0 	
mf_lat_pw_table:0 	0 	0 	0 	0 	0 	0 	100 	8 	0 	0 	0 	0 	0 	0 	0 	0 	0 	0 	0 	0 	0 	0 	0 	0 	0 	0 	0 	0 	0 	0 	0 	
maximum concurrent accesses to same row:
dram[0]:         1         0         0         0         0         0         0         0         0         0         0         0         0         0         0         0 
dram[1]:         0         0         0         0         0         0         0         0         0         0         0         0         0         0         0         0 
dram[2]:         0         0         0         0         0         0         0         0         0         0         0         0         0         0         0         0 
dram[3]:         0         0         0         0         0         0         0         0         0         0         0         0         0         0         0         0 
dram[4]:         0         0         0         0         0         0         0         0         0         0         0         0         0         0         0         0 
dram[5]:         0         0         0         0         0         0         0         0         0         0         0         0         0         0         0         0 
maximum service time to same row:
dram[0]:       642         0         0         0       675       669       526       519       934       865       879       843         0         0         0         0 
dram[1]:      1131         0         0         0       516       524       525      1124      1118       844       882       847         0         0         0         0 
dram[2]:         0         0         0         0       687      1488       681       671      1119       863       887       854         0         0         0         0 
dram[3]:         0         0         0         0       521       663       526       663       846      1141       891       866         0         0         0         0 
dram[4]:         0         0         0         0       519       685      2062       697       888      2750       860       871         0         0         0         0 
dram[5]:         0         0         0         0       516       526       521       659      1135       860       863       875         0         0         0         0 
average row accesses per activate:
dram[0]:  1.000000      -nan      -nan      -nan 10.000000 10.000000 32.000000 32.000000 32.000000 32.000000 39.000000 37.000000      -nan      -nan      -nan      -nan 
dram[1]:  2.000000      -nan      -nan      -nan 10.000000 10.000000 32.000000 32.000000 32.000000 32.000000 41.000000 37.000000      -nan      -nan      -nan      -nan 
dram[2]:      -nan      -nan      -nan      -nan 10.000000 12.000000 32.000000 32.000000 32.000000 32.000000 40.000000 38.000000      -nan      -nan      -nan      -nan 
dram[3]:      -nan      -nan      -nan      -nan 10.000000 12.000000 32.000000 32.000000 32.000000 32.000000 40.000000 37.000000      -nan      -nan      -nan      -nan 
dram[4]:      -nan      -nan      -nan      -nan 10.000000 12.000000 32.000000 32.000000 32.000000 32.000000 39.000000 37.000000      -nan      -nan      -nan      -nan 
dram[5]:      -nan      -nan      -nan      -nan 10.000000 12.000000 32.000000 32.000000 32.000000 32.000000 36.000000 37.000000      -nan      -nan      -nan      -nan 
average row locality = 1359/52 = 26.134615
number of total memory accesses made:
dram[0]:         0         0         0         0         0         0         0         0         0         0         0         0         0         0         0         0 
dram[1]:         0         0         0         0         0         0         0         0         0         0         0         0         0         0         0         0 
dram[2]:         0         0         0         0         0         0         0         0         0         0         0         0         0         0         0         0 
dram[3]:         0         0         0         0         0         0         0         0         0         0         0         0         0         0         0         0 
dram[4]:         0         0         0         0         0         0         0         0         0         0         0         0         0         0         0         0 
dram[5]:         0         0         0         0         0         0         0         0         0         0         0         0         0         0         0         0 
total accesses: 0
min_bank_accesses = 0!
min_chip_accesses = 0!
number of total read accesses:
dram[0]:         3         0         0         0        10        10        32        32        32        32        28        26         0         0         0         0 
dram[1]:         2         0         0         0        10        10        32        32        32        32        28        26         0         0         0         0 
dram[2]:         0         0         0         0        10        12        32        32        32        32        28        26         0         0         0         0 
dram[3]:         0         0         0         0        10        12        32        32        32        32        28        26         0         0         0         0 
dram[4]:         0         0         0         0        10        12        32        32        32        32        27        26         0         0         0         0 
dram[5]:         0         0         0         0        10        12        32        32        32        32        26        26         0         0         0         0 
total reads: 1222
min_bank_accesses = 0!
chip skew: 205/202 = 1.01
number of total write accesses:
dram[0]:         0         0         0         0         0         0         0         0         0         0        11        11         0         0         0         0 
dram[1]:         0         0         0         0         0         0         0         0         0         0        13        11         0         0         0         0 
dram[2]:         0         0         0         0         0         0         0         0         0         0        12        12         0         0         0         0 
dram[3]:         0         0         0         0         0         0         0         0         0         0        12        11         0         0         0         0 
dram[4]:         0         0         0         0         0         0         0         0         0         0        12        11         0         0         0         0 
dram[5]:         0         0         0         0         0         0         0         0         0         0        10        11         0         0         0         0 
total reads: 137
min_bank_accesses = 0!
chip skew: 24/21 = 1.14
average mf latency per bank:
dram[0]:       1300    none      none      none        1379      1199      1647      1071      1006       822      6863      8487    none      none      none      none  
dram[1]:          0    none      none      none        1323      1115      1507      1077       979       884      6238      8822    none      none      none      none  
dram[2]:     none      none      none      none        1335      1716      1358      1212       880       940      6609      6912    none      none      none      none  
dram[3]:     none      none      none      none        1200      1474      1232      1390       787      1034      6255      6725    none      none      none      none  
dram[4]:     none      none      none      none        1323      1519      1138      1369       945       966     11268      7031    none      none      none      none  
dram[5]:     none      none      none      none        1097      1359      1159      1303       915      1010      8846      6907    none      none      none      none  
maximum mf latency per bank:
dram[0]:        278         0         0         0       468       430       700       440       579       400       647       413         0         0         0         0
dram[1]:          0         0         0         0       351       437       744       409       629       434       667       454         0         0         0         0
dram[2]:          0         0         0         0       373       374       556       475       547       409       550       507         0         0         0         0
dram[3]:          0         0         0         0       390       376       462       533       527       570       473       477         0         0         0         0
dram[4]:          0         0         0         0       369       384       470       499       461       591       481       568         0         0         0         0
dram[5]:          0         0         0         0       405       357       428       508       397       616       394       526         0         0         0         0

Number of Memory Banks Accessed per Memory Operation per Warp (from 0):
0	0	0	0	0	0	0	0	0	0	0	0	0	0	0	0	0	0	0	0	0	0	0	0	0	0	0	0	0	0	0	0	0	0	0	0	0	0	0	0	0	0	0	0	0	0	0	0	0	0	0	0	0	0	0	0	0	0	0	0	0	0	0	0	0	0	0	0	0	0	0	0	0	0	0	0	0	0	0	0	0	0	0	0	0	0	0	0	0	0	0	0	0	0	0	0	
Average # of Memory Banks Accessed per Memory Operation per Warp=-nan

position of mrq chosen
0	0	0	0	0	0	0	0	0	0	0	0	0	0	0	0	

average position of mrq chosen = -nan
Memory Partition 0: 
Cache L2_bank_000:
MSHR contents

Cache L2_bank_001:
MSHR contents

In Dram Latency Queue (total = 0): 
DRAM[0]: 16 bks, busW=4 BL=8 CL=12, tRRD=2 tCCD=6, tRCD=12 tRAS=28 tRP=12 tRC=40
n_cmd=69712 n_nop=69267 n_act=11 n_pre=2 n_req=227 n_rd=410 n_write=22 bw_util=0.01239
n_activity=2302 dram_eff=0.3753
bk0: 6a 69639i bk1: 0a 69709i bk2: 0a 69711i bk3: 0a 69712i bk4: 20a 69652i bk5: 20a 69649i bk6: 64a 69499i bk7: 64a 69396i bk8: 64a 69514i bk9: 64a 69449i bk10: 56a 69367i bk11: 52a 69365i bk12: 0a 69709i bk13: 0a 69710i bk14: 0a 69711i bk15: 0a 69711i 
dram_util_bins: 0 0 0 0 0 0 0 0 0 0
dram_eff_bins: 0 0 0 0 0 0 0 0 0 0
mrqq: max=9 avg=0.0146173
Memory Partition 1: 
Cache L2_bank_002:
MSHR contents

Cache L2_bank_003:
MSHR contents

In Dram Latency Queue (total = 0): 
DRAM[1]: 16 bks, busW=4 BL=8 CL=12, tRRD=2 tCCD=6, tRCD=12 tRAS=28 tRP=12 tRC=40
n_cmd=69712 n_nop=69271 n_act=9 n_pre=0 n_req=228 n_rd=408 n_write=24 bw_util=0.01239
n_activity=2154 dram_eff=0.4011
bk0: 4a 69691i bk1: 0a 69712i bk2: 0a 69713i bk3: 0a 69713i bk4: 20a 69643i bk5: 20a 69639i bk6: 64a 69458i bk7: 64a 69394i bk8: 64a 69517i bk9: 64a 69460i bk10: 56a 69332i bk11: 52a 69409i bk12: 0a 69709i bk13: 0a 69710i bk14: 0a 69710i bk15: 0a 69710i 
dram_util_bins: 0 0 0 0 0 0 0 0 0 0
dram_eff_bins: 0 0 0 0 0 0 0 0 0 0
mrqq: max=4 avg=0.00811912
Memory Partition 2: 
Cache L2_bank_004:
MSHR contents

Cache L2_bank_005:
MSHR contents

In Dram Latency Queue (total = 0): 
DRAM[2]: 16 bks, busW=4 BL=8 CL=12, tRRD=2 tCCD=6, tRCD=12 tRAS=28 tRP=12 tRC=40
n_cmd=69712 n_nop=69272 n_act=8 n_pre=0 n_req=228 n_rd=408 n_write=24 bw_util=0.01239
n_activity=2286 dram_eff=0.378
bk0: 0a 69711i bk1: 0a 69713i bk2: 0a 69715i bk3: 0a 69717i bk4: 20a 69656i bk5: 24a 69631i bk6: 64a 69517i bk7: 64a 69481i bk8: 64a 69501i bk9: 64a 69446i bk10: 56a 69408i bk11: 52a 69422i bk12: 0a 69707i bk13: 0a 69708i bk14: 0a 69710i bk15: 0a 69711i 
dram_util_bins: 0 0 0 0 0 0 0 0 0 0
dram_eff_bins: 0 0 0 0 0 0 0 0 0 0
mrqq: max=4 avg=0.00649816
Memory Partition 3: 
Cache L2_bank_006:
MSHR contents

Cache L2_bank_007:
MSHR contents

In Dram Latency Queue (total = 0): 
DRAM[3]: 16 bks, busW=4 BL=8 CL=12, tRRD=2 tCCD=6, tRCD=12 tRAS=28 tRP=12 tRC=40
n_cmd=69712 n_nop=69273 n_act=8 n_pre=0 n_req=227 n_rd=408 n_write=23 bw_util=0.01237
n_activity=2277 dram_eff=0.3786
bk0: 0a 69711i bk1: 0a 69712i bk2: 0a 69713i bk3: 0a 69714i bk4: 20a 69646i bk5: 24a 69628i bk6: 64a 69503i bk7: 64a 69461i bk8: 64a 69504i bk9: 64a 69433i bk10: 56a 69432i bk11: 52a 69378i bk12: 0a 69709i bk13: 0a 69710i bk14: 0a 69711i bk15: 0a 69711i 
dram_util_bins: 0 0 0 0 0 0 0 0 0 0
dram_eff_bins: 0 0 0 0 0 0 0 0 0 0
mrqq: max=6 avg=0.0083056
Memory Partition 4: 
Cache L2_bank_008:
MSHR contents

Cache L2_bank_009:
MSHR contents

In Dram Latency Queue (total = 0): 
DRAM[4]: 16 bks, busW=4 BL=8 CL=12, tRRD=2 tCCD=6, tRCD=12 tRAS=28 tRP=12 tRC=40
n_cmd=69712 n_nop=69275 n_act=8 n_pre=0 n_req=226 n_rd=406 n_write=23 bw_util=0.01231
n_activity=2306 dram_eff=0.3721
bk0: 0a 69712i bk1: 0a 69713i bk2: 0a 69715i bk3: 0a 69716i bk4: 20a 69632i bk5: 24a 69621i bk6: 64a 69454i bk7: 64a 69426i bk8: 64a 69540i bk9: 64a 69465i bk10: 54a 69423i bk11: 52a 69403i bk12: 0a 69706i bk13: 0a 69709i bk14: 0a 69711i bk15: 0a 69711i 
dram_util_bins: 0 0 0 0 0 0 0 0 0 0
dram_eff_bins: 0 0 0 0 0 0 0 0 0 0
mrqq: max=4 avg=0.0075023
Memory Partition 5: 
Cache L2_bank_010:
MSHR contents

Cache L2_bank_011:
MSHR contents

In Dram Latency Queue (total = 0): 
DRAM[5]: 16 bks, busW=4 BL=8 CL=12, tRRD=2 tCCD=6, tRCD=12 tRAS=28 tRP=12 tRC=40
n_cmd=69712 n_nop=69279 n_act=8 n_pre=0 n_req=223 n_rd=404 n_write=21 bw_util=0.01219
n_activity=2138 dram_eff=0.3976
bk0: 0a 69711i bk1: 0a 69712i bk2: 0a 69712i bk3: 0a 69712i bk4: 20a 69651i bk5: 24a 69629i bk6: 64a 69452i bk7: 64a 69444i bk8: 64a 69538i bk9: 64a 69436i bk10: 52a 69404i bk11: 52a 69448i bk12: 0a 69711i bk13: 0a 69711i bk14: 0a 69711i bk15: 0a 69711i 
dram_util_bins: 0 0 0 0 0 0 0 0 0 0
dram_eff_bins: 0 0 0 0 0 0 0 0 0 0
mrqq: max=6 avg=0.00948187

========= L2 cache stats =========
L2_cache_bank[0]: Access = 1838, Miss = 105, Miss_rate = 0.057, Pending_hits = 6, Reservation_fails = 225
L2_cache_bank[1]: Access = 2054, Miss = 100, Miss_rate = 0.049, Pending_hits = 1, Reservation_fails = 0
L2_cache_bank[2]: Access = 1772, Miss = 104, Miss_rate = 0.059, Pending_hits = 4, Reservation_fails = 104
L2_cache_bank[3]: Access = 2104, Miss = 100, Miss_rate = 0.048, Pending_hits = 1, Reservation_fails = 0
L2_cache_bank[4]: Access = 1805, Miss = 102, Miss_rate = 0.057, Pending_hits = 1, Reservation_fails = 0
L2_cache_bank[5]: Access = 1805, Miss = 102, Miss_rate = 0.057, Pending_hits = 1, Reservation_fails = 0
L2_cache_bank[6]: Access = 1758, Miss = 102, Miss_rate = 0.058, Pending_hits = 0, Reservation_fails = 0
L2_cache_bank[7]: Access = 1751, Miss = 102, Miss_rate = 0.058, Pending_hits = 1, Reservation_fails = 0
L2_cache_bank[8]: Access = 2822, Miss = 101, Miss_rate = 0.036, Pending_hits = 2, Reservation_fails = 0
L2_cache_bank[9]: Access = 1806, Miss = 102, Miss_rate = 0.056, Pending_hits = 1, Reservation_fails = 0
L2_cache_bank[10]: Access = 2040, Miss = 100, Miss_rate = 0.049, Pending_hits = 0, Reservation_fails = 0
L2_cache_bank[11]: Access = 1776, Miss = 102, Miss_rate = 0.057, Pending_hits = 1, Reservation_fails = 0
L2_total_cache_accesses = 23331
L2_total_cache_misses = 1222
L2_total_cache_miss_rate = 0.0524
L2_total_cache_pending_hits = 19
L2_total_cache_reservation_fails = 329
L2_total_cache_breakdown:
	L2_cache_stats_breakdown[GLOBAL_ACC_R][HIT] = 6300
	L2_cache_stats_breakdown[GLOBAL_ACC_R][HIT_RESERVED] = 2
	L2_cache_stats_breakdown[GLOBAL_ACC_R][MISS] = 1088
	L2_cache_stats_breakdown[CONST_ACC_R][HIT] = 11
	L2_cache_stats_breakdown[CONST_ACC_R][HIT_RESERVED] = 3
	L2_cache_stats_breakdown[CONST_ACC_R][MISS] = 1
	L2_cache_stats_breakdown[CONST_ACC_R][RESERVATION_FAIL] = 109
	L2_cache_stats_breakdown[GLOBAL_ACC_W][HIT] = 15729
	L2_cache_stats_breakdown[GLOBAL_ACC_W][HIT_RESERVED] = 8
	L2_cache_stats_breakdown[GLOBAL_ACC_W][MISS] = 129
	L2_cache_stats_breakdown[INST_ACC_R][HIT] = 50
	L2_cache_stats_breakdown[INST_ACC_R][HIT_RESERVED] = 6
	L2_cache_stats_breakdown[INST_ACC_R][MISS] = 4
	L2_cache_stats_breakdown[INST_ACC_R][RESERVATION_FAIL] = 220
L2_cache_data_port_util = 0.067
L2_cache_fill_port_util = 0.008

icnt_total_pkts_mem_to_simt=53161
icnt_total_pkts_simt_to_mem=40254
LD_mem_lat_dist  0 0 0 0 0 0 0 0 0 0 0 0 0 0 0 0 0 0 0 0 0 0 0 0 0 0 0
ST_mem_lat_dist  0 0 0 0 0 0 0 0 0 0 0 0 0 0 0 0 0 0 0 0 0 0 0 0 0 0 0
----------------------------Interconnect-DETAILS--------------------------------
Class 0:
Packet latency average = 8.8
	minimum = 6
	maximum = 20
Network latency average = 8.45
	minimum = 6
	maximum = 19
Slowest packet = 46645
Flit latency average = 6.87719
	minimum = 6
	maximum = 15
Slowest flit = 93374
Fragmentation average = 0
	minimum = 0
	maximum = 0
Injected packet rate average = 0.00394536
	minimum = 0.00266312 (at node 0)
	maximum = 0.00798935 (at node 2)
Accepted packet rate average = 0.00394536
	minimum = 0.00266312 (at node 0)
	maximum = 0.00798935 (at node 2)
Injected flit rate average = 0.0112443
	minimum = 0.00266312 (at node 0)
	maximum = 0.0332889 (at node 18)
Accepted flit rate average= 0.0112443
	minimum = 0.00266312 (at node 20)
	maximum = 0.0292943 (at node 2)
Injected packet length average = 2.85
Accepted packet length average = 2.85
Total in-flight flits = 0 (0 measured)
====== Overall Traffic Statistics ======
====== Traffic class 0 ======
Packet latency average = 14.7332 (8 samples)
	minimum = 6 (8 samples)
	maximum = 80 (8 samples)
Network latency average = 11.7686 (8 samples)
	minimum = 6 (8 samples)
	maximum = 69.625 (8 samples)
Flit latency average = 11.3599 (8 samples)
	minimum = 6 (8 samples)
	maximum = 66.625 (8 samples)
Fragmentation average = 0 (8 samples)
	minimum = 0 (8 samples)
	maximum = 0 (8 samples)
Injected packet rate average = 0.0234767 (8 samples)
	minimum = 0.0144045 (8 samples)
	maximum = 0.054854 (8 samples)
Accepted packet rate average = 0.0234767 (8 samples)
	minimum = 0.0144045 (8 samples)
	maximum = 0.054854 (8 samples)
Injected flit rate average = 0.0484638 (8 samples)
	minimum = 0.0248947 (8 samples)
	maximum = 0.0943994 (8 samples)
Accepted flit rate average = 0.0484638 (8 samples)
	minimum = 0.0259821 (8 samples)
	maximum = 0.156921 (8 samples)
Injected packet size average = 2.06434 (8 samples)
Accepted packet size average = 2.06434 (8 samples)
Hops average = 1 (8 samples)
----------------------------END-of-Interconnect-DETAILS-------------------------


gpgpu_simulation_time = 0 days, 0 hrs, 0 min, 44 sec (44 sec)
gpgpu_simulation_rate = 20856 (inst/sec)
gpgpu_simulation_rate = 1200 (cycle/sec)
GPGPU-Sim: synchronize waiting for inactive GPU simulation
GPGPU-Sim API: Stream Manager State
GPGPU-Sim: detected inactive GPU simulation thread
Kernel Executed 8 times
Processing time: 43459.769531 (ms)
Result stored in result.txt
