

        *** GPGPU-Sim Simulator Version 3.2.2  [build 0] ***


GPGPU-Sim PTX: simulation mode 0 (can change with PTX_SIM_MODE_FUNC environment variable:
               1=functional simulation only, 0=detailed performance simulator)
GPGPU-Sim: Configuration options:

-network_mode                           1 # Interconnection network mode
-inter_config_file   config_fermi_islip.icnt # Interconnection network config file
-gpgpu_ptx_use_cuobjdump                    1 # Use cuobjdump to extract ptx and sass from binaries
-gpgpu_experimental_lib_support                    0 # Try to extract code from cuda libraries [Broken because of unknown cudaGetExportTable]
-gpgpu_ptx_convert_to_ptxplus                    0 # Convert SASS (native ISA) to ptxplus and run ptxplus
-gpgpu_ptx_force_max_capability                   20 # Force maximum compute capability
-gpgpu_ptx_inst_debug_to_file                    0 # Dump executed instructions' debug information to file
-gpgpu_ptx_inst_debug_file       inst_debug.txt # Executed instructions' debug output file
-gpgpu_ptx_inst_debug_thread_uid                    1 # Thread UID for executed instructions' debug output
-gpgpu_simd_model                       1 # 1 = post-dominator
-gpgpu_shader_core_pipeline              1536:32 # shader core pipeline config, i.e., {<nthread>:<warpsize>}
-gpgpu_tex_cache:l1  4:128:24,L:R:m:N:L,F:128:4,128:2 # per-shader L1 texture cache  (READ-ONLY) config  {<nsets>:<bsize>:<assoc>,<rep>:<wr>:<alloc>:<wr_alloc>,<mshr>:<N>:<merge>,<mq>:<rf>}
-gpgpu_const_cache:l1 64:64:2,L:R:f:N:L,A:2:32,4 # per-shader L1 constant memory cache  (READ-ONLY) config  {<nsets>:<bsize>:<assoc>,<rep>:<wr>:<alloc>:<wr_alloc>,<mshr>:<N>:<merge>,<mq>} 
-gpgpu_cache:il1     4:128:4,L:R:f:N:L,A:2:32,4 # shader L1 instruction cache config  {<nsets>:<bsize>:<assoc>,<rep>:<wr>:<alloc>:<wr_alloc>,<mshr>:<N>:<merge>,<mq>} 
-gpgpu_cache:dl1     32:128:4,L:L:m:N:H,A:32:8,8 # per-shader L1 data cache config  {<nsets>:<bsize>:<assoc>,<rep>:<wr>:<alloc>:<wr_alloc>,<mshr>:<N>:<merge>,<mq> | none}
-gpgpu_cache:dl1PrefL1                 none # per-shader L1 data cache config  {<nsets>:<bsize>:<assoc>,<rep>:<wr>:<alloc>:<wr_alloc>,<mshr>:<N>:<merge>,<mq> | none}
-gpgpu_cache:dl1PreShared                 none # per-shader L1 data cache config  {<nsets>:<bsize>:<assoc>,<rep>:<wr>:<alloc>:<wr_alloc>,<mshr>:<N>:<merge>,<mq> | none}
-gmem_skip_L1D                          0 # global memory access skip L1D cache (implements -Xptxas -dlcm=cg, default=no skip)
-gpgpu_perfect_mem                      0 # enable perfect memory mode (no cache miss)
-n_regfile_gating_group                    4 # group of lanes that should be read/written together)
-gpgpu_clock_gated_reg_file                    0 # enable clock gated reg file for power calculations
-gpgpu_clock_gated_lanes                    0 # enable clock gated lanes for power calculations
-gpgpu_shader_registers                32768 # Number of registers per shader core. Limits number of concurrent CTAs. (default 8192)
-gpgpu_shader_cta                       8 # Maximum number of concurrent CTAs in shader (default 8)
-gpgpu_num_cta_barriers                   16 # Maximum number of named barriers per CTA (default 16)
-gpgpu_n_clusters                      15 # number of processing clusters
-gpgpu_n_cores_per_cluster                    1 # number of simd cores per cluster
-gpgpu_n_cluster_ejection_buffer_size                    8 # number of packets in ejection buffer
-gpgpu_n_ldst_response_buffer_size                    2 # number of response packets in ld/st unit ejection buffer
-gpgpu_shmem_size                   16384 # Size of shared memory per shader core (default 16kB)
-gpgpu_shmem_size                   49152 # Size of shared memory per shader core (default 16kB)
-gpgpu_shmem_size_PrefL1                16384 # Size of shared memory per shader core (default 16kB)
-gpgpu_shmem_size_PrefShared                16384 # Size of shared memory per shader core (default 16kB)
-gpgpu_shmem_num_banks                   32 # Number of banks in the shared memory in each shader core (default 16)
-gpgpu_shmem_limited_broadcast                    0 # Limit shared memory to do one broadcast per cycle (default on)
-gpgpu_shmem_warp_parts                    1 # Number of portions a warp is divided into for shared memory bank conflict check 
-gpgpu_warpdistro_shader                   -1 # Specify which shader core to collect the warp size distribution from
-gpgpu_warp_issue_shader                    0 # Specify which shader core to collect the warp issue distribution from
-gpgpu_local_mem_map                    1 # Mapping from local memory space address to simulated GPU physical address space (default = enabled)
-gpgpu_num_reg_banks                   16 # Number of register banks (default = 8)
-gpgpu_reg_bank_use_warp_id                    0 # Use warp ID in mapping registers to banks (default = off)
-gpgpu_operand_collector_num_units_sp                    6 # number of collector units (default = 4)
-gpgpu_operand_collector_num_units_sfu                    8 # number of collector units (default = 4)
-gpgpu_operand_collector_num_units_mem                    2 # number of collector units (default = 2)
-gpgpu_operand_collector_num_units_gen                    0 # number of collector units (default = 0)
-gpgpu_operand_collector_num_in_ports_sp                    2 # number of collector unit in ports (default = 1)
-gpgpu_operand_collector_num_in_ports_sfu                    1 # number of collector unit in ports (default = 1)
-gpgpu_operand_collector_num_in_ports_mem                    1 # number of collector unit in ports (default = 1)
-gpgpu_operand_collector_num_in_ports_gen                    0 # number of collector unit in ports (default = 0)
-gpgpu_operand_collector_num_out_ports_sp                    2 # number of collector unit in ports (default = 1)
-gpgpu_operand_collector_num_out_ports_sfu                    1 # number of collector unit in ports (default = 1)
-gpgpu_operand_collector_num_out_ports_mem                    1 # number of collector unit in ports (default = 1)
-gpgpu_operand_collector_num_out_ports_gen                    0 # number of collector unit in ports (default = 0)
-gpgpu_coalesce_arch                   13 # Coalescing arch (default = 13, anything else is off for now)
-gpgpu_num_sched_per_core                    1 # Number of warp schedulers per core
-gpgpu_max_insn_issue_per_warp                    1 # Max number of instructions that can be issued per warp in one cycle by scheduler
-gpgpu_simt_core_sim_order                    1 # Select the simulation order of cores in a cluster (0=Fix, 1=Round-Robin)
-gpgpu_pipeline_widths        2,1,1,2,1,1,2 # Pipeline widths ID_OC_SP,ID_OC_SFU,ID_OC_MEM,OC_EX_SP,OC_EX_SFU,OC_EX_MEM,EX_WB
-gpgpu_num_sp_units                     2 # Number of SP units (default=1)
-gpgpu_num_sfu_units                    1 # Number of SF units (default=1)
-gpgpu_num_mem_units                    1 # Number if ldst units (default=1) WARNING: not hooked up to anything
-gpgpu_scheduler                      gto # Scheduler configuration: < lrr | gto | two_level_active > If two_level_active:<num_active_warps>:<inner_prioritization>:<outer_prioritization>For complete list of prioritization values see shader.h enum scheduler_prioritization_typeDefault: gto
-gpgpu_dram_scheduler                    1 # 0 = fifo, 1 = FR-FCFS (defaul)
-gpgpu_dram_partition_queues              8:8:8:8 # i2$:$2d:d2$:$2i
-l2_ideal                               0 # Use a ideal L2 cache that always hit
-gpgpu_cache:dl2     64:128:8,L:B:m:W:L,A:32:4,4:0,32 # unified banked L2 data cache config  {<nsets>:<bsize>:<assoc>,<rep>:<wr>:<alloc>:<wr_alloc>,<mshr>:<N>:<merge>,<mq>}
-gpgpu_cache:dl2_texture_only                    0 # L2 cache used for texture only
-gpgpu_n_mem                            6 # number of memory modules (e.g. memory controllers) in gpu
-gpgpu_n_sub_partition_per_mchannel                    2 # number of memory subpartition in each memory module
-gpgpu_n_mem_per_ctrlr                    2 # number of memory chips per memory controller
-gpgpu_memlatency_stat                   14 # track and display latency statistics 0x2 enables MC, 0x4 enables queue logs
-gpgpu_frfcfs_dram_sched_queue_size                   16 # 0 = unlimited (default); # entries per chip
-gpgpu_dram_return_queue_size                  116 # 0 = unlimited (default); # entries per chip
-gpgpu_dram_buswidth                    4 # default = 4 bytes (8 bytes per cycle at DDR)
-gpgpu_dram_burst_length                    8 # Burst length of each DRAM request (default = 4 data bus cycle)
-dram_data_command_freq_ratio                    4 # Frequency ratio between DRAM data bus and command bus (default = 2 times, i.e. DDR)
-gpgpu_dram_timing_opt nbk=16:CCD=2:RRD=6:RCD=12:RAS=28:RP=12:RC=40: CL=12:WL=4:CDLR=5:WR=12:nbkgrp=4:CCDL=3:RTPL=2 # DRAM timing parameters = {nbk:tCCD:tRRD:tRCD:tRAS:tRP:tRC:CL:WL:tCDLR:tWR:nbkgrp:tCCDL:tRTPL}
-rop_latency                          120 # ROP queue latency (default 85)
-dram_latency                         100 # DRAM latency (default 30)
-gpgpu_mem_addr_mapping dramid@8;00000000.00000000.00000000.00000000.0000RRRR.RRRRRRRR.BBBCCCCB.CCSSSSSS # mapping memory address to dram model {dramid@<start bit>;<memory address map>}
-gpgpu_mem_addr_test                    0 # run sweep test to check address mapping for aliased address
-gpgpu_mem_address_mask                    1 # 0 = old addressing mask, 1 = new addressing mask, 2 = new add. mask + flipped bank sel and chip sel bits
-gpuwattch_xml_file  gpuwattch_gtx480.xml # GPUWattch XML file
-power_simulation_enabled                    1 # Turn on power simulator (1=On, 0=Off)
-power_per_cycle_dump                    0 # Dump detailed power output each cycle
-power_trace_enabled                    0 # produce a file for the power trace (1=On, 0=Off)
-power_trace_zlevel                     6 # Compression level of the power trace output log (0=no comp, 9=highest)
-steady_power_levels_enabled                    0 # produce a file for the steady power levels (1=On, 0=Off)
-steady_state_definition                  8:4 # allowed deviation:number of samples
-gpgpu_max_cycle                        0 # terminates gpu simulation early (0 = no limit)
-gpgpu_max_insn                         0 # terminates gpu simulation early (0 = no limit)
-gpgpu_max_cta                          0 # terminates gpu simulation early (0 = no limit)
-gpgpu_runtime_stat                   500 # display runtime statistics such as dram utilization {<freq>:<flag>}
-liveness_message_freq                    1 # Minimum number of seconds between simulation liveness messages (0 = always print)
-gpgpu_flush_l1_cache                    0 # Flush L1 cache at the end of each kernel call
-gpgpu_flush_l2_cache                    0 # Flush L2 cache at the end of each kernel call
-gpgpu_deadlock_detect                    1 # Stop the simulation at deadlock (1=on (default), 0=off)
-gpgpu_ptx_instruction_classification                    0 # if enabled will classify ptx instruction types per kernel (Max 255 kernels now)
-gpgpu_ptx_sim_mode                     0 # Select between Performance (default) or Functional simulation (1)
-gpgpu_clock_domains 700.0:700.0:700.0:924.0 # Clock Domain Frequencies in MhZ {<Core Clock>:<ICNT Clock>:<L2 Clock>:<DRAM Clock>}
-gpgpu_max_concurrent_kernel                    8 # maximum kernels that can run concurrently on GPU
-gpgpu_cflog_interval                    0 # Interval between each snapshot in control flow logger
-visualizer_enabled                     0 # Turn on visualizer output (1=On, 0=Off)
-visualizer_outputfile                 NULL # Specifies the output log file for visualizer
-visualizer_zlevel                      6 # Compression level of the visualizer output log (0=no comp, 9=highest)
-trace_enabled                          0 # Turn on traces
-trace_components                    none # comma seperated list of traces to enable. Complete list found in trace_streams.tup. Default none
-trace_sampling_core                    0 # The core which is printed using CORE_DPRINTF. Default 0
-trace_sampling_memory_partition                   -1 # The memory partition which is printed using MEMPART_DPRINTF. Default -1 (i.e. all)
-enable_ptx_file_line_stats                    1 # Turn on PTX source line statistic profiling. (1 = On)
-ptx_line_stats_filename gpgpu_inst_stats.txt # Output file for PTX source line statistics.
-save_embedded_ptx                      0 # saves ptx files embedded in binary as <n>.ptx
-keep                                   0 # keep intermediate files created by GPGPU-Sim when interfacing with external programs
-gpgpu_ptx_save_converted_ptxplus                    0 # Saved converted ptxplus to a file
-ptx_opcode_latency_int         4,13,4,5,145 # Opcode latencies for integers <ADD,MAX,MUL,MAD,DIV>Default 1,1,19,25,145
-ptx_opcode_latency_fp          4,13,4,5,39 # Opcode latencies for single precision floating points <ADD,MAX,MUL,MAD,DIV>Default 1,1,1,1,30
-ptx_opcode_latency_dp         8,19,8,8,330 # Opcode latencies for double precision floating points <ADD,MAX,MUL,MAD,DIV>Default 8,8,8,8,335
-ptx_opcode_initiation_int            1,2,2,1,8 # Opcode initiation intervals for integers <ADD,MAX,MUL,MAD,DIV>Default 1,1,4,4,32
-ptx_opcode_initiation_fp            1,2,1,1,4 # Opcode initiation intervals for single precision floating points <ADD,MAX,MUL,MAD,DIV>Default 1,1,1,1,5
-ptx_opcode_initiation_dp         8,16,8,8,130 # Opcode initiation intervals for double precision floating points <ADD,MAX,MUL,MAD,DIV>Default 8,8,8,8,130
DRAM Timing Options:
nbk                                    16 # number of banks
CCD                                     2 # column to column delay
RRD                                     6 # minimal delay between activation of rows in different banks
RCD                                    12 # row to column delay
RAS                                    28 # time needed to activate row
RP                                     12 # time needed to precharge (deactivate) row
RC                                     40 # row cycle time
CDLR                                    5 # switching from write to read (changes tWTR)
WR                                     12 # last data-in to row precharge
CL                                     12 # CAS latency
WL                                      4 # Write latency
nbkgrp                                  4 # number of bank groups
CCDL                                    3 # column to column delay between accesses to different bank groups
RTPL                                    2 # read to precharge delay between accesses to different bank groups
Total number of memory sub partition = 12
addr_dec_mask[CHIP]  = 0000000000000000 	high:64 low:0
addr_dec_mask[BK]    = 000000000000e100 	high:16 low:8
addr_dec_mask[ROW]   = 000000000fff0000 	high:28 low:16
addr_dec_mask[COL]   = 0000000000001eff 	high:13 low:0
addr_dec_mask[BURST] = 000000000000003f 	high:6 low:0
sub_partition_id_mask = 0000000000000100
GPGPU-Sim uArch: clock freqs: 700000000.000000:700000000.000000:700000000.000000:924000000.000000
GPGPU-Sim uArch: clock periods: 0.00000000142857142857:0.00000000142857142857:0.00000000142857142857:0.00000000108225108225
*** Initializing Memory Statistics ***
GPGPU-Sim uArch: interconnect node map (shaderID+MemID to icntID)
GPGPU-Sim uArch: Memory nodes ID start from index: 15
GPGPU-Sim uArch:    0   1   2   3   4
GPGPU-Sim uArch:    5   6   7   8   9
GPGPU-Sim uArch:   10  11  12  13  14
GPGPU-Sim uArch:   15  16  17  18  19
GPGPU-Sim uArch:   20  21  22  23  24
GPGPU-Sim uArch:   25  26
GPGPU-Sim uArch: interconnect node reverse map (icntID to shaderID+MemID)
GPGPU-Sim uArch: Memory nodes start from ID: 15
GPGPU-Sim uArch:    0   1   2   3   4
GPGPU-Sim uArch:    5   6   7   8   9
GPGPU-Sim uArch:   10  11  12  13  14
GPGPU-Sim uArch:   15  16  17  18  19
GPGPU-Sim uArch:   20  21  22  23  24
GPGPU-Sim uArch:   25  26
36731beff5187ff21689d20a58a6b791  /home/kishore/project_source/gpu_class_proj/gpgpusim-benchmarks-master/bin/release/LIB
GPGPU-Sim uArch: performance model initialization complete.
GPGPU-Sim PTX: __cudaRegisterFatBinary, fat_cubin_handle = 1, filename=libor.cu
self exe links to: /home/kishore/project_source/gpu_class_proj/gpgpusim-benchmarks-master/bin/release/LIB
Running md5sum using "md5sum /home/kishore/project_source/gpu_class_proj/gpgpusim-benchmarks-master/bin/release/LIB "
Running cuobjdump using "$CUDA_INSTALL_PATH/bin/cuobjdump -ptx -elf -sass /home/kishore/project_source/gpu_class_proj/gpgpusim-benchmarks-master/bin/release/LIB > _cuobjdump_complete_output_vWmhgz"
Parsing file _cuobjdump_complete_output_vWmhgz
######### cuobjdump parser ########
## Adding new section PTX
Adding ptx filename: _cuobjdump_1.ptx
Adding arch: sm_10
Adding identifier: libor.cu
## Adding new section ELF
Adding arch: sm_10
Adding identifier: libor.cu
## Adding new section ELF
Adding arch: sm_20
Adding identifier: libor.cu
## Adding new section PTX
Adding ptx filename: _cuobjdump_2.ptx
Adding arch: sm_20
Adding identifier: libor.cu
Done parsing!!!
GPGPU-Sim PTX: __cudaRegisterFunction _Z29Pathcalc_Portfolio_KernelGPU2Pf : hostFun 0x0x403b30, fat_cubin_handle = 1
GPGPU-Sim PTX: allocating stack frame region for .param "__cudaparmf1__Z9path_calcPfS_" from 0x0 to 0x8
GPGPU-Sim PTX: allocating stack frame region for .param "__cudaparmf2__Z9path_calcPfS_" from 0x8 to 0x10
GPGPU-Sim PTX: allocating stack frame region for .param "__cudaparmf1__Z12path_calc_b1PfS_S_" from 0x0 to 0x8
GPGPU-Sim PTX: allocating stack frame region for .param "__cudaparmf2__Z12path_calc_b1PfS_S_" from 0x8 to 0x10
GPGPU-Sim PTX: allocating stack frame region for .param "__cudaparmf3__Z12path_calc_b1PfS_S_" from 0x10 to 0x18
GPGPU-Sim PTX: allocating stack frame region for .param "__cudaparmf1__Z12path_calc_b2PfS_S_" from 0x0 to 0x8
GPGPU-Sim PTX: allocating stack frame region for .param "__cudaparmf2__Z12path_calc_b2PfS_S_" from 0x8 to 0x10
GPGPU-Sim PTX: allocating stack frame region for .param "__cudaparmf3__Z12path_calc_b2PfS_S_" from 0x10 to 0x18
GPGPU-Sim PTX: allocating stack frame region for .param "__cudaretf__Z11portfolio_bPfS_" from 0x0 to 0x4
GPGPU-Sim PTX: allocating stack frame region for .param "__cudaparmf1__Z11portfolio_bPfS_" from 0x4 to 0xc
GPGPU-Sim PTX: allocating stack frame region for .param "__cudaparmf2__Z11portfolio_bPfS_" from 0xc to 0x14
GPGPU-Sim PTX: allocating stack frame region for .param "__cudaretf__Z9portfolioPf" from 0x0 to 0x4
GPGPU-Sim PTX: allocating stack frame region for .param "__cudaparmf1__Z9portfolioPf" from 0x4 to 0xc
GPGPU-Sim PTX: allocating constant region for "N" from 0x100 to 0x104 (global memory space) 1
GPGPU-Sim PTX: allocating constant region for "Nmat" from 0x104 to 0x108 (global memory space) 2
GPGPU-Sim PTX: allocating constant region for "delta" from 0x108 to 0x10c (global memory space) 3
GPGPU-Sim PTX: allocating constant region for "lambda" from 0x180 to 0x2c0 (global memory space) 4
GPGPU-Sim PTX: instruction assembly for function '_Z9path_calcPfS_'...   done.
GPGPU-Sim PTX: finding reconvergence points for '_Z9path_calcPfS_'...
GPGPU-Sim PTX: Finding dominators for '_Z9path_calcPfS_'...
GPGPU-Sim PTX: Finding immediate dominators for '_Z9path_calcPfS_'...
GPGPU-Sim PTX: Finding postdominators for '_Z9path_calcPfS_'...
GPGPU-Sim PTX: Finding immediate postdominators for '_Z9path_calcPfS_'...
GPGPU-Sim PTX: pre-decoding instructions for '_Z9path_calcPfS_'...
GPGPU-Sim PTX: reconvergence points for _Z9path_calcPfS_...
GPGPU-Sim PTX:  1 (potential) branch divergence @  PC=0x038 (_1.ptx:81) @%p1 bra $Lt_0_2306;
GPGPU-Sim PTX:    immediate post dominator      @  PC=0x218 (_1.ptx:153) ret;
GPGPU-Sim PTX:  2 (potential) branch divergence @  PC=0x0a8 (_1.ptx:99) @%p2 bra $Lt_0_3074;
GPGPU-Sim PTX:    immediate post dominator      @  PC=0x1f8 (_1.ptx:147) mov.s32 %r5, %r7;
GPGPU-Sim PTX:  3 (potential) branch divergence @  PC=0x1f0 (_1.ptx:145) @%p3 bra $Lt_0_3586;
GPGPU-Sim PTX:    immediate post dominator      @  PC=0x1f8 (_1.ptx:147) mov.s32 %r5, %r7;
GPGPU-Sim PTX:  4 (potential) branch divergence @  PC=0x210 (_1.ptx:150) @%p4 bra $Lt_0_2818;
GPGPU-Sim PTX:    immediate post dominator      @  PC=0x218 (_1.ptx:153) ret;
GPGPU-Sim PTX: ... end of reconvergence points for _Z9path_calcPfS_
GPGPU-Sim PTX: ... done pre-decoding instructions for '_Z9path_calcPfS_'.
GPGPU-Sim PTX: instruction assembly for function '_Z12path_calc_b1PfS_S_'...   done.
GPGPU-Sim PTX: finding reconvergence points for '_Z12path_calc_b1PfS_S_'...
GPGPU-Sim PTX: Finding dominators for '_Z12path_calc_b1PfS_S_'...
GPGPU-Sim PTX: Finding immediate dominators for '_Z12path_calc_b1PfS_S_'...
GPGPU-Sim PTX: Finding postdominators for '_Z12path_calc_b1PfS_S_'...
GPGPU-Sim PTX: Finding immediate postdominators for '_Z12path_calc_b1PfS_S_'...
GPGPU-Sim PTX: pre-decoding instructions for '_Z12path_calc_b1PfS_S_'...
GPGPU-Sim PTX: reconvergence points for _Z12path_calc_b1PfS_S_...
GPGPU-Sim PTX:  1 (potential) branch divergence @  PC=0x268 (_1.ptx:175) @%p1 bra $Lt_1_3330;
GPGPU-Sim PTX:    immediate post dominator      @  PC=0x2d0 (_1.ptx:192) ld.const.s32 %r6, [Nmat];
GPGPU-Sim PTX:  2 (potential) branch divergence @  PC=0x2c8 (_1.ptx:190) @%p2 bra $Lt_1_3842;
GPGPU-Sim PTX:    immediate post dominator      @  PC=0x2d0 (_1.ptx:192) ld.const.s32 %r6, [Nmat];
GPGPU-Sim PTX:  3 (potential) branch divergence @  PC=0x2e8 (_1.ptx:195) @%p3 bra $Lt_1_4354;
GPGPU-Sim PTX:    immediate post dominator      @  PC=0x4f8 (_1.ptx:274) ret;
GPGPU-Sim PTX:  4 (potential) branch divergence @  PC=0x350 (_1.ptx:212) @%p4 bra $Lt_1_5122;
GPGPU-Sim PTX:    immediate post dominator      @  PC=0x4d8 (_1.ptx:268) mov.s32 %r9, %r11;
GPGPU-Sim PTX:  5 (potential) branch divergence @  PC=0x4d0 (_1.ptx:266) @%p5 bra $Lt_1_5634;
GPGPU-Sim PTX:    immediate post dominator      @  PC=0x4d8 (_1.ptx:268) mov.s32 %r9, %r11;
GPGPU-Sim PTX:  6 (potential) branch divergence @  PC=0x4f0 (_1.ptx:271) @%p6 bra $Lt_1_4866;
GPGPU-Sim PTX:    immediate post dominator      @  PC=0x4f8 (_1.ptx:274) ret;
GPGPU-Sim PTX: ... end of reconvergence points for _Z12path_calc_b1PfS_S_
GPGPU-Sim PTX: ... done pre-decoding instructions for '_Z12path_calc_b1PfS_S_'.
GPGPU-Sim PTX: instruction assembly for function '_Z12path_calc_b2PfS_S_'...   done.
GPGPU-Sim PTX: finding reconvergence points for '_Z12path_calc_b2PfS_S_'...
GPGPU-Sim PTX: Finding dominators for '_Z12path_calc_b2PfS_S_'...
GPGPU-Sim PTX: Finding immediate dominators for '_Z12path_calc_b2PfS_S_'...
GPGPU-Sim PTX: Finding postdominators for '_Z12path_calc_b2PfS_S_'...
GPGPU-Sim PTX: Finding immediate postdominators for '_Z12path_calc_b2PfS_S_'...
GPGPU-Sim PTX: pre-decoding instructions for '_Z12path_calc_b2PfS_S_'...
GPGPU-Sim PTX: reconvergence points for _Z12path_calc_b2PfS_S_...
GPGPU-Sim PTX:  1 (potential) branch divergence @  PC=0x548 (_1.ptx:297) @%p1 bra $Lt_2_2306;
GPGPU-Sim PTX:    immediate post dominator      @  PC=0x730 (_1.ptx:368) ret;
GPGPU-Sim PTX:  2 (potential) branch divergence @  PC=0x580 (_1.ptx:306) @%p2 bra $Lt_2_3074;
GPGPU-Sim PTX:    immediate post dominator      @  PC=0x710 (_1.ptx:362) sub.s32 %r3, %r3, 1;
GPGPU-Sim PTX:  3 (potential) branch divergence @  PC=0x708 (_1.ptx:360) @%p3 bra $Lt_2_3586;
GPGPU-Sim PTX:    immediate post dominator      @  PC=0x710 (_1.ptx:362) sub.s32 %r3, %r3, 1;
GPGPU-Sim PTX:  4 (potential) branch divergence @  PC=0x728 (_1.ptx:365) @%p4 bra $Lt_2_2818;
GPGPU-Sim PTX:    immediate post dominator      @  PC=0x730 (_1.ptx:368) ret;
GPGPU-Sim PTX: ... end of reconvergence points for _Z12path_calc_b2PfS_S_
GPGPU-Sim PTX: ... done pre-decoding instructions for '_Z12path_calc_b2PfS_S_'.
GPGPU-Sim PTX: allocating constant region for "Nopt" from 0x2c0 to 0x2c4 (global memory space) 5
GPGPU-Sim PTX: allocating constant region for "maturities" from 0x300 to 0x33c (global memory space) 6
GPGPU-Sim PTX: allocating constant region for "swaprates" from 0x380 to 0x3bc (global memory space) 7
GPGPU-Sim PTX: allocating stack frame region for .local "__cuda___cuda_local_var_34164_9_non_const_B_16440" from 0x80 to 0x120
GPGPU-Sim PTX: allocating stack frame region for .local "__cuda___cuda_local_var_34164_16_non_const_S_176600" from 0x180 to 0x220
GPGPU-Sim PTX: allocating stack frame region for .local "__cuda___cuda_local_var_34164_23_non_const_B_b_336760" from 0x280 to 0x320
GPGPU-Sim PTX: allocating stack frame region for .local "__cuda___cuda_local_var_34164_32_non_const_S_b_496920" from 0x380 to 0x420
GPGPU-Sim PTX: instruction assembly for function '_Z11portfolio_bPfS_'...   done.
GPGPU-Sim PTX: finding reconvergence points for '_Z11portfolio_bPfS_'...
GPGPU-Sim PTX: Finding dominators for '_Z11portfolio_bPfS_'...
GPGPU-Sim PTX: Finding immediate dominators for '_Z11portfolio_bPfS_'...
GPGPU-Sim PTX: Finding postdominators for '_Z11portfolio_bPfS_'...
GPGPU-Sim PTX: Finding immediate postdominators for '_Z11portfolio_bPfS_'...
GPGPU-Sim PTX: pre-decoding instructions for '_Z11portfolio_bPfS_'...
GPGPU-Sim PTX: reconvergence points for _Z11portfolio_bPfS_...
GPGPU-Sim PTX:  1 (potential) branch divergence @  PC=0x780 (_1.ptx:397) @!%p1 bra $Lt_3_8962;
GPGPU-Sim PTX:    immediate post dominator      @  PC=0x868 (_1.ptx:433) @!%p1 bra $Lt_3_9986;
GPGPU-Sim PTX:  2 (potential) branch divergence @  PC=0x860 (_1.ptx:431) @%p2 bra $Lt_3_9474;
GPGPU-Sim PTX:    immediate post dominator      @  PC=0x868 (_1.ptx:433) @!%p1 bra $Lt_3_9986;
GPGPU-Sim PTX:  3 (potential) branch divergence @  PC=0x868 (_1.ptx:433) @!%p1 bra $Lt_3_9986;
GPGPU-Sim PTX:    immediate post dominator      @  PC=0x8e0 (_1.ptx:453) ld.const.s32 %r11, [Nopt];
GPGPU-Sim PTX:  4 (potential) branch divergence @  PC=0x8d8 (_1.ptx:451) @%p3 bra $Lt_3_10498;
GPGPU-Sim PTX:    immediate post dominator      @  PC=0x8e0 (_1.ptx:453) ld.const.s32 %r11, [Nopt];
GPGPU-Sim PTX:  5 (potential) branch divergence @  PC=0x8f8 (_1.ptx:456) @%p4 bra $Lt_3_17666;
GPGPU-Sim PTX:    immediate post dominator      @  PC=0xa80 (_1.ptx:515) sub.s32 %r17, %r3, 1;
GPGPU-Sim PTX:  6 (potential) branch divergence @  PC=0x9c8 (_1.ptx:485) @!%p5 bra $Lt_3_11778;
GPGPU-Sim PTX:    immediate post dominator      @  PC=0xa30 (_1.ptx:502) add.s32 %r14, %r14, 1;
GPGPU-Sim PTX:  7 (potential) branch divergence @  PC=0xa50 (_1.ptx:506) @%p6 bra $Lt_3_11522;
GPGPU-Sim PTX:    immediate post dominator      @  PC=0xa58 (_1.ptx:507) bra.uni $Lt_3_11010;
GPGPU-Sim PTX:  8 (potential) branch divergence @  PC=0xa58 (_1.ptx:507) bra.uni $Lt_3_11010;
GPGPU-Sim PTX:    immediate post dominator      @  PC=0xa80 (_1.ptx:515) sub.s32 %r17, %r3, 1;
GPGPU-Sim PTX:  9 (potential) branch divergence @  PC=0xa98 (_1.ptx:518) @%p7 bra $Lt_3_12546;
GPGPU-Sim PTX:    immediate post dominator      @  PC=0xc60 (_1.ptx:583) mov.s32 %r22, 0;
GPGPU-Sim PTX: 10 (potential) branch divergence @  PC=0xba0 (_1.ptx:555) @%p8 bra $Lt_3_13314;
GPGPU-Sim PTX:    immediate post dominator      @  PC=0xc20 (_1.ptx:574) sub.s32 %r6, %r6, 1;
GPGPU-Sim PTX: 11 (potential) branch divergence @  PC=0xc58 (_1.ptx:581) @%p9 bra $Lt_3_13058;
GPGPU-Sim PTX:    immediate post dominator      @  PC=0xc60 (_1.ptx:583) mov.s32 %r22, 0;
GPGPU-Sim PTX: 12 (potential) branch divergence @  PC=0xc70 (_1.ptx:585) @!%p10 bra $Lt_3_18178;
GPGPU-Sim PTX:    immediate post dominator      @  PC=0xd18 (_1.ptx:612) mul.f32 %f10, %f10, %f3;
GPGPU-Sim PTX: 13 (potential) branch divergence @  PC=0xd00 (_1.ptx:606) @%p11 bra $Lt_3_14594;
GPGPU-Sim PTX:    immediate post dominator      @  PC=0xd08 (_1.ptx:607) bra.uni $Lt_3_14082;
GPGPU-Sim PTX: 14 (potential) branch divergence @  PC=0xd08 (_1.ptx:607) bra.uni $Lt_3_14082;
GPGPU-Sim PTX:    immediate post dominator      @  PC=0xd18 (_1.ptx:612) mul.f32 %f10, %f10, %f3;
GPGPU-Sim PTX: 15 (potential) branch divergence @  PC=0xd20 (_1.ptx:613) @!%p10 bra $Lt_3_15106;
GPGPU-Sim PTX:    immediate post dominator      @  PC=0xdd8 (_1.ptx:641) mov.s32 %r14, %r1;
GPGPU-Sim PTX: 16 (potential) branch divergence @  PC=0xdd0 (_1.ptx:638) @%p12 bra $Lt_3_15618;
GPGPU-Sim PTX:    immediate post dominator      @  PC=0xdd8 (_1.ptx:641) mov.s32 %r14, %r1;
GPGPU-Sim PTX: 17 (potential) branch divergence @  PC=0xde8 (_1.ptx:643) @%p13 bra $Lt_3_16130;
GPGPU-Sim PTX:    immediate post dominator      @  PC=0xe50 (_1.ptx:661) mov.f32 %f54, %f10;
GPGPU-Sim PTX: 18 (potential) branch divergence @  PC=0xe48 (_1.ptx:658) @%p14 bra $Lt_3_16642;
GPGPU-Sim PTX:    immediate post dominator      @  PC=0xe50 (_1.ptx:661) mov.f32 %f54, %f10;
GPGPU-Sim PTX: ... end of reconvergence points for _Z11portfolio_bPfS_
GPGPU-Sim PTX: ... done pre-decoding instructions for '_Z11portfolio_bPfS_'.
GPGPU-Sim PTX: allocating stack frame region for .local "__cuda___cuda_local_var_34227_27_non_const_B_01080" from 0x80 to 0x120
GPGPU-Sim PTX: allocating stack frame region for .local "__cuda___cuda_local_var_34227_34_non_const_S_1601240" from 0x180 to 0x220
GPGPU-Sim PTX: instruction assembly for function '_Z9portfolioPf'...   done.
GPGPU-Sim PTX: finding reconvergence points for '_Z9portfolioPf'...
GPGPU-Sim PTX: Finding dominators for '_Z9portfolioPf'...
GPGPU-Sim PTX: Finding immediate dominators for '_Z9portfolioPf'...
GPGPU-Sim PTX: Finding postdominators for '_Z9portfolioPf'...
GPGPU-Sim PTX: Finding immediate postdominators for '_Z9portfolioPf'...
GPGPU-Sim PTX: pre-decoding instructions for '_Z9portfolioPf'...
GPGPU-Sim PTX: reconvergence points for _Z9portfolioPf...
GPGPU-Sim PTX:  1 (potential) branch divergence @  PC=0xe90 (_1.ptx:684) @%p1 bra $Lt_4_4098;
GPGPU-Sim PTX:    immediate post dominator      @  PC=0xf90 (_1.ptx:723) cvta.local.u64 %rd3, __cuda___cuda_local_var_34227_27_non_const_B_01080;
GPGPU-Sim PTX:  2 (potential) branch divergence @  PC=0xf88 (_1.ptx:721) @%p2 bra $Lt_4_4610;
GPGPU-Sim PTX:    immediate post dominator      @  PC=0xf90 (_1.ptx:723) cvta.local.u64 %rd3, __cuda___cuda_local_var_34227_27_non_const_B_01080;
GPGPU-Sim PTX:  3 (potential) branch divergence @  PC=0xfb8 (_1.ptx:728) @%p3 bra $Lt_4_7426;
GPGPU-Sim PTX:    immediate post dominator      @  PC=0x10d0 (_1.ptx:769) mov.u32 %r13, 0;
GPGPU-Sim PTX:  4 (potential) branch divergence @  PC=0x10b8 (_1.ptx:764) @%p5 bra $Lt_4_5634;
GPGPU-Sim PTX:    immediate post dominator      @  PC=0x10c0 (_1.ptx:765) bra.uni $Lt_4_5122;
GPGPU-Sim PTX:  5 (potential) branch divergence @  PC=0x10c0 (_1.ptx:765) bra.uni $Lt_4_5122;
GPGPU-Sim PTX:    immediate post dominator      @  PC=0x10d0 (_1.ptx:769) mov.u32 %r13, 0;
GPGPU-Sim PTX:  6 (potential) branch divergence @  PC=0x10e0 (_1.ptx:771) @%p6 bra $Lt_4_7682;
GPGPU-Sim PTX:    immediate post dominator      @  PC=0x1188 (_1.ptx:798) mul.f32 %f16, %f6, %f3;
GPGPU-Sim PTX:  7 (potential) branch divergence @  PC=0x1170 (_1.ptx:792) @%p7 bra $Lt_4_6658;
GPGPU-Sim PTX:    immediate post dominator      @  PC=0x1178 (_1.ptx:793) bra.uni $Lt_4_6146;
GPGPU-Sim PTX:  8 (potential) branch divergence @  PC=0x1178 (_1.ptx:793) bra.uni $Lt_4_6146;
GPGPU-Sim PTX:    immediate post dominator      @  PC=0x1188 (_1.ptx:798) mul.f32 %f16, %f6, %f3;
GPGPU-Sim PTX: ... end of reconvergence points for _Z9portfolioPf
GPGPU-Sim PTX: ... done pre-decoding instructions for '_Z9portfolioPf'.
GPGPU-Sim PTX: allocating stack frame region for .local "__cuda___cuda_local_var_34164_32_non_const_S_b_161416" from 0x0 to 0xa0
GPGPU-Sim PTX: allocating stack frame region for .local "__cuda___cuda_local_var_34164_16_non_const_S_1761576" from 0x100 to 0x1a0
GPGPU-Sim PTX: allocating stack frame region for .local "__cuda___cuda_local_var_34265_16_non_const_L2_3361736" from 0x200 to 0x3540
GPGPU-Sim PTX: allocating stack frame region for .local "__cuda___cuda_local_var_34164_23_non_const_B_b_1345614856" from 0x3580 to 0x3620
GPGPU-Sim PTX: allocating stack frame region for .local "__cuda___cuda_local_var_34164_9_non_const_B_1361615016" from 0x3680 to 0x3720
GPGPU-Sim PTX: allocating stack frame region for .local "__cuda___cuda_local_var_34265_26_non_const_z_1377615176" from 0x3780 to 0x38c0
GPGPU-Sim PTX: allocating stack frame region for .local "__cuda___cuda_local_var_34265_9_non_const_L_1409615496" from 0x3900 to 0x3a40
GPGPU-Sim PTX: instruction assembly for function '_Z28Pathcalc_Portfolio_KernelGPUPfS_'...   done.
GPGPU-Sim PTX: finding reconvergence points for '_Z28Pathcalc_Portfolio_KernelGPUPfS_'...
GPGPU-Sim PTX: Finding dominators for '_Z28Pathcalc_Portfolio_KernelGPUPfS_'...
GPGPU-Sim PTX: Finding immediate dominators for '_Z28Pathcalc_Portfolio_KernelGPUPfS_'...
GPGPU-Sim PTX: Finding postdominators for '_Z28Pathcalc_Portfolio_KernelGPUPfS_'...
GPGPU-Sim PTX: Finding immediate postdominators for '_Z28Pathcalc_Portfolio_KernelGPUPfS_'...
GPGPU-Sim PTX: pre-decoding instructions for '_Z28Pathcalc_Portfolio_KernelGPUPfS_'...
GPGPU-Sim PTX: reconvergence points for _Z28Pathcalc_Portfolio_KernelGPUPfS_...
GPGPU-Sim PTX:  1 (potential) branch divergence @  PC=0x11e0 (_1.ptx:831) @%p1 bra $Lt_5_16130;
GPGPU-Sim PTX:    immediate post dominator      @  PC=0x1e48 (_1.ptx:1310) exit;
GPGPU-Sim PTX:  2 (potential) branch divergence @  PC=0x1320 (_1.ptx:873) @!%p2 bra $Lt_5_17922;
GPGPU-Sim PTX:    immediate post dominator      @  PC=0x1400 (_1.ptx:911) @!%p3 bra $Lt_5_18946;
GPGPU-Sim PTX:  3 (potential) branch divergence @  PC=0x1390 (_1.ptx:891) @%p9 bra $Lt_5_17410;
GPGPU-Sim PTX:    immediate post dominator      @  PC=0x1398 (_1.ptx:894) @!%p2 bra $Lt_5_17922;
GPGPU-Sim PTX:  4 (potential) branch divergence @  PC=0x1398 (_1.ptx:894) @!%p2 bra $Lt_5_17922;
GPGPU-Sim PTX:    immediate post dominator      @  PC=0x1400 (_1.ptx:911) @!%p3 bra $Lt_5_18946;
GPGPU-Sim PTX:  5 (potential) branch divergence @  PC=0x13f8 (_1.ptx:909) @%p10 bra $Lt_5_18434;
GPGPU-Sim PTX:    immediate post dominator      @  PC=0x1400 (_1.ptx:911) @!%p3 bra $Lt_5_18946;
GPGPU-Sim PTX:  6 (potential) branch divergence @  PC=0x1400 (_1.ptx:911) @!%p3 bra $Lt_5_18946;
GPGPU-Sim PTX:    immediate post dominator      @  PC=0x1610 (_1.ptx:989) @!%p6 bra $Lt_5_22018;
GPGPU-Sim PTX:  7 (potential) branch divergence @  PC=0x1438 (_1.ptx:921) @%p11 bra $Lt_5_19714;
GPGPU-Sim PTX:    immediate post dominator      @  PC=0x15f8 (_1.ptx:984) mov.s32 %r29, %r31;
GPGPU-Sim PTX:  8 (potential) branch divergence @  PC=0x15f0 (_1.ptx:982) @%p12 bra $Lt_5_20226;
GPGPU-Sim PTX:    immediate post dominator      @  PC=0x15f8 (_1.ptx:984) mov.s32 %r29, %r31;
GPGPU-Sim PTX:  9 (potential) branch divergence @  PC=0x1608 (_1.ptx:986) @%p13 bra $Lt_5_19458;
GPGPU-Sim PTX:    immediate post dominator      @  PC=0x1610 (_1.ptx:989) @!%p6 bra $Lt_5_22018;
GPGPU-Sim PTX: 10 (potential) branch divergence @  PC=0x1610 (_1.ptx:989) @!%p6 bra $Lt_5_22018;
GPGPU-Sim PTX:    immediate post dominator      @  PC=0x1770 (_1.ptx:1045) @!%p4 bra $Lt_5_33282;
GPGPU-Sim PTX: 11 (potential) branch divergence @  PC=0x16f0 (_1.ptx:1023) @%p14 bra $Lt_5_21506;
GPGPU-Sim PTX:    immediate post dominator      @  PC=0x16f8 (_1.ptx:1025) @!%p6 bra $Lt_5_22018;
GPGPU-Sim PTX: 12 (potential) branch divergence @  PC=0x16f8 (_1.ptx:1025) @!%p6 bra $Lt_5_22018;
GPGPU-Sim PTX:    immediate post dominator      @  PC=0x1770 (_1.ptx:1045) @!%p4 bra $Lt_5_33282;
GPGPU-Sim PTX: 13 (potential) branch divergence @  PC=0x1768 (_1.ptx:1043) @%p15 bra $Lt_5_22530;
GPGPU-Sim PTX:    immediate post dominator      @  PC=0x1770 (_1.ptx:1045) @!%p4 bra $Lt_5_33282;
GPGPU-Sim PTX: 14 (potential) branch divergence @  PC=0x1770 (_1.ptx:1045) @!%p4 bra $Lt_5_33282;
GPGPU-Sim PTX:    immediate post dominator      @  PC=0x18c0 (_1.ptx:1096) @!%p8 bra $Lt_5_24578;
GPGPU-Sim PTX: 15 (potential) branch divergence @  PC=0x1820 (_1.ptx:1070) @!%p16 bra $Lt_5_23810;
GPGPU-Sim PTX:    immediate post dominator      @  PC=0x1888 (_1.ptx:1087) add.s32 %r46, %r46, 1;
GPGPU-Sim PTX: 16 (potential) branch divergence @  PC=0x18a8 (_1.ptx:1091) @%p17 bra $Lt_5_23554;
GPGPU-Sim PTX:    immediate post dominator      @  PC=0x18b0 (_1.ptx:1092) bra.uni $Lt_5_23042;
GPGPU-Sim PTX: 17 (potential) branch divergence @  PC=0x18b0 (_1.ptx:1092) bra.uni $Lt_5_23042;
GPGPU-Sim PTX:    immediate post dominator      @  PC=0x18c0 (_1.ptx:1096) @!%p8 bra $Lt_5_24578;
GPGPU-Sim PTX: 18 (potential) branch divergence @  PC=0x18c0 (_1.ptx:1096) @!%p8 bra $Lt_5_24578;
GPGPU-Sim PTX:    immediate post dominator      @  PC=0x1a58 (_1.ptx:1155) @!%p3 bra $Lt_5_33794;
GPGPU-Sim PTX: 19 (potential) branch divergence @  PC=0x19b8 (_1.ptx:1131) @%p18 bra $Lt_5_25346;
GPGPU-Sim PTX:    immediate post dominator      @  PC=0x1a20 (_1.ptx:1147) sub.s32 %r40, %r40, 1;
GPGPU-Sim PTX: 20 (potential) branch divergence @  PC=0x1a50 (_1.ptx:1153) @%p19 bra $Lt_5_25090;
GPGPU-Sim PTX:    immediate post dominator      @  PC=0x1a58 (_1.ptx:1155) @!%p3 bra $Lt_5_33794;
GPGPU-Sim PTX: 21 (potential) branch divergence @  PC=0x1a58 (_1.ptx:1155) @!%p3 bra $Lt_5_33794;
GPGPU-Sim PTX:    immediate post dominator      @  PC=0x1b00 (_1.ptx:1182) mul.f32 %f30, %f30, %f24;
GPGPU-Sim PTX: 22 (potential) branch divergence @  PC=0x1ae8 (_1.ptx:1176) @%p20 bra $Lt_5_26626;
GPGPU-Sim PTX:    immediate post dominator      @  PC=0x1af0 (_1.ptx:1177) bra.uni $Lt_5_26114;
GPGPU-Sim PTX: 23 (potential) branch divergence @  PC=0x1af0 (_1.ptx:1177) bra.uni $Lt_5_26114;
GPGPU-Sim PTX:    immediate post dominator      @  PC=0x1b00 (_1.ptx:1182) mul.f32 %f30, %f30, %f24;
GPGPU-Sim PTX: 24 (potential) branch divergence @  PC=0x1b08 (_1.ptx:1183) @!%p3 bra $Lt_5_27138;
GPGPU-Sim PTX:    immediate post dominator      @  PC=0x1bb0 (_1.ptx:1209) mov.s32 %r46, %r10;
GPGPU-Sim PTX: 25 (potential) branch divergence @  PC=0x1ba8 (_1.ptx:1206) @%p21 bra $Lt_5_27650;
GPGPU-Sim PTX:    immediate post dominator      @  PC=0x1bb0 (_1.ptx:1209) mov.s32 %r46, %r10;
GPGPU-Sim PTX: 26 (potential) branch divergence @  PC=0x1bb8 (_1.ptx:1210) @!%p5 bra $Lt_5_28162;
GPGPU-Sim PTX:    immediate post dominator      @  PC=0x1c20 (_1.ptx:1228) st.global.f32 [%rd5+0], %f30;
GPGPU-Sim PTX: 27 (potential) branch divergence @  PC=0x1c18 (_1.ptx:1225) @%p22 bra $Lt_5_28674;
GPGPU-Sim PTX:    immediate post dominator      @  PC=0x1c20 (_1.ptx:1228) st.global.f32 [%rd5+0], %f30;
GPGPU-Sim PTX: 28 (potential) branch divergence @  PC=0x1c30 (_1.ptx:1231) @!%p7 bra $Lt_5_29186;
GPGPU-Sim PTX:    immediate post dominator      @  PC=0x1e08 (_1.ptx:1300) ld.local.f32 %f85, [__cuda___cuda_local_var_34265_9_non_const_L_1409615496+316];
GPGPU-Sim PTX: 29 (potential) branch divergence @  PC=0x1c58 (_1.ptx:1238) @%p23 bra $Lt_5_29954;
GPGPU-Sim PTX:    immediate post dominator      @  PC=0x1de8 (_1.ptx:1294) sub.s32 %r57, %r57, 1;
GPGPU-Sim PTX: 30 (potential) branch divergence @  PC=0x1de0 (_1.ptx:1292) @%p24 bra $Lt_5_30466;
GPGPU-Sim PTX:    immediate post dominator      @  PC=0x1de8 (_1.ptx:1294) sub.s32 %r57, %r57, 1;
GPGPU-Sim PTX: 31 (potential) branch divergence @  PC=0x1e00 (_1.ptx:1297) @%p25 bra $Lt_5_29698;
GPGPU-Sim PTX:    immediate post dominator      @  PC=0x1e08 (_1.ptx:1300) ld.local.f32 %f85, [__cuda___cuda_local_var_34265_9_non_const_L_1409615496+316];
GPGPU-Sim PTX: 32 (potential) branch divergence @  PC=0x1e40 (_1.ptx:1307) @%p26 bra $Lt_5_16642;
GPGPU-Sim PTX:    immediate post dominator      @  PC=0x1e48 (_1.ptx:1310) exit;
GPGPU-Sim PTX: ... end of reconvergence points for _Z28Pathcalc_Portfolio_KernelGPUPfS_
GPGPU-Sim PTX: ... done pre-decoding instructions for '_Z28Pathcalc_Portfolio_KernelGPUPfS_'.
GPGPU-Sim PTX: allocating stack frame region for .local "__cuda___cuda_local_var_34227_27_non_const_B_1615824" from 0x0 to 0xa0
GPGPU-Sim PTX: allocating stack frame region for .local "__cuda___cuda_local_var_34291_9_non_const_L_17615984" from 0x100 to 0x240
GPGPU-Sim PTX: allocating stack frame region for .local "__cuda___cuda_local_var_34227_34_non_const_S_49616304" from 0x280 to 0x320
GPGPU-Sim PTX: allocating stack frame region for .local "__cuda___cuda_local_var_34291_16_non_const_z_65616464" from 0x380 to 0x4c0
GPGPU-Sim PTX: instruction assembly for function '_Z29Pathcalc_Portfolio_KernelGPU2Pf'...   done.
GPGPU-Sim PTX: finding reconvergence points for '_Z29Pathcalc_Portfolio_KernelGPU2Pf'...
GPGPU-Sim PTX: Finding dominators for '_Z29Pathcalc_Portfolio_KernelGPU2Pf'...
GPGPU-Sim PTX: Finding immediate dominators for '_Z29Pathcalc_Portfolio_KernelGPU2Pf'...
GPGPU-Sim PTX: Finding postdominators for '_Z29Pathcalc_Portfolio_KernelGPU2Pf'...
GPGPU-Sim PTX: Finding immediate postdominators for '_Z29Pathcalc_Portfolio_KernelGPU2Pf'...
GPGPU-Sim PTX: pre-decoding instructions for '_Z29Pathcalc_Portfolio_KernelGPU2Pf'...
GPGPU-Sim PTX: reconvergence points for _Z29Pathcalc_Portfolio_KernelGPU2Pf...
GPGPU-Sim PTX:  1 (potential) branch divergence @  PC=0x1e90 (_1.ptx:1337) @%p1 bra $Lt_6_8194;
GPGPU-Sim PTX:    immediate post dominator      @  PC=0x2498 (_1.ptx:1571) exit;
GPGPU-Sim PTX:  2 (potential) branch divergence @  PC=0x1f60 (_1.ptx:1365) @!%p2 bra $Lt_6_8962;
GPGPU-Sim PTX:    immediate post dominator      @  PC=0x1fd8 (_1.ptx:1386) @!%p3 bra $Lt_6_9986;
GPGPU-Sim PTX:  3 (potential) branch divergence @  PC=0x1fd0 (_1.ptx:1383) @%p6 bra $Lt_6_9474;
GPGPU-Sim PTX:    immediate post dominator      @  PC=0x1fd8 (_1.ptx:1386) @!%p3 bra $Lt_6_9986;
GPGPU-Sim PTX:  4 (potential) branch divergence @  PC=0x1fd8 (_1.ptx:1386) @!%p3 bra $Lt_6_9986;
GPGPU-Sim PTX:    immediate post dominator      @  PC=0x21b0 (_1.ptx:1456) @!%p4 bra $Lt_6_12034;
GPGPU-Sim PTX:  5 (potential) branch divergence @  PC=0x2010 (_1.ptx:1396) @%p7 bra $Lt_6_10754;
GPGPU-Sim PTX:    immediate post dominator      @  PC=0x2198 (_1.ptx:1451) mov.s32 %r20, %r22;
GPGPU-Sim PTX:  6 (potential) branch divergence @  PC=0x2190 (_1.ptx:1449) @%p8 bra $Lt_6_11266;
GPGPU-Sim PTX:    immediate post dominator      @  PC=0x2198 (_1.ptx:1451) mov.s32 %r20, %r22;
GPGPU-Sim PTX:  7 (potential) branch divergence @  PC=0x21a8 (_1.ptx:1453) @%p9 bra $Lt_6_10498;
GPGPU-Sim PTX:    immediate post dominator      @  PC=0x21b0 (_1.ptx:1456) @!%p4 bra $Lt_6_12034;
GPGPU-Sim PTX:  8 (potential) branch divergence @  PC=0x21b0 (_1.ptx:1456) @!%p4 bra $Lt_6_12034;
GPGPU-Sim PTX:    immediate post dominator      @  PC=0x22a0 (_1.ptx:1493) @!%p5 bra $Lt_6_16642;
GPGPU-Sim PTX:  9 (potential) branch divergence @  PC=0x2298 (_1.ptx:1491) @%p10 bra $Lt_6_12546;
GPGPU-Sim PTX:    immediate post dominator      @  PC=0x22a0 (_1.ptx:1493) @!%p5 bra $Lt_6_16642;
GPGPU-Sim PTX: 10 (potential) branch divergence @  PC=0x22a0 (_1.ptx:1493) @!%p5 bra $Lt_6_16642;
GPGPU-Sim PTX:    immediate post dominator      @  PC=0x23b8 (_1.ptx:1534) @!%p3 bra $Lt_6_16898;
GPGPU-Sim PTX: 11 (potential) branch divergence @  PC=0x23a0 (_1.ptx:1529) @%p12 bra $Lt_6_13570;
GPGPU-Sim PTX:    immediate post dominator      @  PC=0x23a8 (_1.ptx:1530) bra.uni $Lt_6_13058;
GPGPU-Sim PTX: 12 (potential) branch divergence @  PC=0x23a8 (_1.ptx:1530) bra.uni $Lt_6_13058;
GPGPU-Sim PTX:    immediate post dominator      @  PC=0x23b8 (_1.ptx:1534) @!%p3 bra $Lt_6_16898;
GPGPU-Sim PTX: 13 (potential) branch divergence @  PC=0x23b8 (_1.ptx:1534) @!%p3 bra $Lt_6_16898;
GPGPU-Sim PTX:    immediate post dominator      @  PC=0x2460 (_1.ptx:1561) mul.f32 %f25, %f25, %f22;
GPGPU-Sim PTX: 14 (potential) branch divergence @  PC=0x2448 (_1.ptx:1555) @%p13 bra $Lt_6_14594;
GPGPU-Sim PTX:    immediate post dominator      @  PC=0x2450 (_1.ptx:1556) bra.uni $Lt_6_14082;
GPGPU-Sim PTX: 15 (potential) branch divergence @  PC=0x2450 (_1.ptx:1556) bra.uni $Lt_6_14082;
GPGPU-Sim PTX:    immediate post dominator      @  PC=0x2460 (_1.ptx:1561) mul.f32 %f25, %f25, %f22;
GPGPU-Sim PTX: 16 (potential) branch divergence @  PC=0x2490 (_1.ptx:1568) @%p14 bra $Lt_6_8706;
GPGPU-Sim PTX:    immediate post dominator      @  PC=0x2498 (_1.ptx:1571) exit;
GPGPU-Sim PTX: ... end of reconvergence points for _Z29Pathcalc_Portfolio_KernelGPU2Pf
GPGPU-Sim PTX: ... done pre-decoding instructions for '_Z29Pathcalc_Portfolio_KernelGPU2Pf'.
GPGPU-Sim PTX: finished parsing EMBEDDED .ptx file _1.ptx
Adding _cuobjdump_2.ptx with cubin handle 1
GPGPU-Sim PTX: extracting embedded .ptx to temporary file "_ptx_Y7alMl"
Running: cat _ptx_Y7alMl | sed 's/.version 1.5/.version 1.4/' | sed 's/, texmode_independent//' | sed 's/\(\.extern \.const\[1\] .b8 \w\+\)\[\]/\1\[1\]/' | sed 's/const\[.\]/const\[0\]/g' > _ptx2_fnzqi8
GPGPU-Sim PTX: generating ptxinfo using "$CUDA_INSTALL_PATH/bin/ptxas --gpu-name=sm_20 -v _ptx2_fnzqi8 --output-file  /dev/null 2> _ptx_Y7alMlinfo"
GPGPU-Sim PTX: Kernel '_Z29Pathcalc_Portfolio_KernelGPU2Pf' : regs=33, lmem=4, smem=0, cmem=508
GPGPU-Sim PTX: Kernel '_Z28Pathcalc_Portfolio_KernelGPUPfS_' : regs=41, lmem=4, smem=0, cmem=516
GPGPU-Sim PTX: removing ptxinfo using "rm -f _ptx_Y7alMl _ptx2_fnzqi8 _ptx_Y7alMlinfo"
GPGPU-Sim PTX: loading globals with explicit initializers... 
GPGPU-Sim PTX: finished loading globals (0 bytes total).
GPGPU-Sim PTX: loading constants with explicit initializers...  done.
GPGPU-Sim PTX: __cudaRegisterFunction _Z28Pathcalc_Portfolio_KernelGPUPfS_ : hostFun 0x0x403ba0, fat_cubin_handle = 1
GPGPU-Sim PTX: __cudaRegisterVar: hostVar = 0x62d448; deviceAddress = N; deviceName = N
GPGPU-Sim PTX: __cudaRegisterVar: Registering const memory space of 4 bytes
GPGPU-Sim PTX registering constant N (4 bytes) to name mapping
GPGPU-Sim PTX: __cudaRegisterVar: hostVar = 0x62d44c; deviceAddress = Nmat; deviceName = Nmat
GPGPU-Sim PTX: __cudaRegisterVar: Registering const memory space of 4 bytes
GPGPU-Sim PTX registering constant Nmat (4 bytes) to name mapping
GPGPU-Sim PTX: __cudaRegisterVar: hostVar = 0x62d450; deviceAddress = Nopt; deviceName = Nopt
GPGPU-Sim PTX: __cudaRegisterVar: Registering const memory space of 4 bytes
GPGPU-Sim PTX registering constant Nopt (4 bytes) to name mapping
GPGPU-Sim PTX: __cudaRegisterVar: hostVar = 0x62d460; deviceAddress = maturities; deviceName = maturities
GPGPU-Sim PTX: __cudaRegisterVar: Registering const memory space of 60 bytes
GPGPU-Sim PTX registering constant maturities (60 bytes) to name mapping
GPGPU-Sim PTX: __cudaRegisterVar: hostVar = 0x62d49c; deviceAddress = delta; deviceName = delta
GPGPU-Sim PTX: __cudaRegisterVar: Registering const memory space of 4 bytes
GPGPU-Sim PTX registering constant delta (4 bytes) to name mapping
GPGPU-Sim PTX: __cudaRegisterVar: hostVar = 0x62d4a0; deviceAddress = swaprates; deviceName = swaprates
GPGPU-Sim PTX: __cudaRegisterVar: Registering const memory space of 60 bytes
GPGPU-Sim PTX registering constant swaprates (60 bytes) to name mapping
GPGPU-Sim PTX: __cudaRegisterVar: hostVar = 0x62d4e0; deviceAddress = lambda; deviceName = lambda
GPGPU-Sim PTX: __cudaRegisterVar: Registering const memory space of 320 bytes
GPGPU-Sim PTX registering constant lambda (320 bytes) to name mapping
GPGPU-Sim PTX: cudaMemcpyToSymbol: symbol = 0x62d448
GPGPU-Sim PTX: starting gpgpu_ptx_sim_memcpy_symbol with hostVar 0x0x62d448
GPGPU-Sim PTX: gpgpu_ptx_sim_memcpy_symbol: Found PTX symbol w/ hostVar=0x62d448
GPGPU-Sim PTX: gpgpu_ptx_sim_memcpy_symbol: copying const memory 4 bytes  to  symbol N+0 @0x100 ...
GPGPU-Sim PTX: cudaMemcpyToSymbol: symbol = 0x62d44c
GPGPU-Sim PTX: starting gpgpu_ptx_sim_memcpy_symbol with hostVar 0x0x62d44c
GPGPU-Sim PTX: gpgpu_ptx_sim_memcpy_symbol: Found PTX symbol w/ hostVar=0x62d44c
GPGPU-Sim PTX: gpgpu_ptx_sim_memcpy_symbol: copying const memory 4 bytes  to  symbol Nmat+0 @0x104 ...
GPGPU-Sim PTX: cudaMemcpyToSymbol: symbol = 0x62d450
GPGPU-Sim PTX: starting gpgpu_ptx_sim_memcpy_symbol with hostVar 0x0x62d450
GPGPU-Sim PTX: gpgpu_ptx_sim_memcpy_symbol: Found PTX symbol w/ hostVar=0x62d450
GPGPU-Sim PTX: gpgpu_ptx_sim_memcpy_symbol: copying const memory 4 bytes  to  symbol Nopt+0 @0x2c0 ...
GPGPU-Sim PTX: cudaMemcpyToSymbol: symbol = 0x62d49c
GPGPU-Sim PTX: starting gpgpu_ptx_sim_memcpy_symbol with hostVar 0x0x62d49c
GPGPU-Sim PTX: gpgpu_ptx_sim_memcpy_symbol: Found PTX symbol w/ hostVar=0x62d49c
GPGPU-Sim PTX: gpgpu_ptx_sim_memcpy_symbol: copying const memory 4 bytes  to  symbol delta+0 @0x108 ...
GPGPU-Sim PTX: cudaMemcpyToSymbol: symbol = 0x62d460
GPGPU-Sim PTX: starting gpgpu_ptx_sim_memcpy_symbol with hostVar 0x0x62d460
GPGPU-Sim PTX: gpgpu_ptx_sim_memcpy_symbol: Found PTX symbol w/ hostVar=0x62d460
GPGPU-Sim PTX: gpgpu_ptx_sim_memcpy_symbol: copying const memory 60 bytes  to  symbol maturities+0 @0x300 ...
GPGPU-Sim PTX: cudaMemcpyToSymbol: symbol = 0x62d4a0
GPGPU-Sim PTX: starting gpgpu_ptx_sim_memcpy_symbol with hostVar 0x0x62d4a0
GPGPU-Sim PTX: gpgpu_ptx_sim_memcpy_symbol: Found PTX symbol w/ hostVar=0x62d4a0
GPGPU-Sim PTX: gpgpu_ptx_sim_memcpy_symbol: copying const memory 60 bytes  to  symbol swaprates+0 @0x380 ...
GPGPU-Sim PTX: cudaMemcpyToSymbol: symbol = 0x62d4e0
GPGPU-Sim PTX: starting gpgpu_ptx_sim_memcpy_symbol with hostVar 0x0x62d4e0
GPGPU-Sim PTX: gpgpu_ptx_sim_memcpy_symbol: Found PTX symbol w/ hostVar=0x62d4e0
GPGPU-Sim PTX: gpgpu_ptx_sim_memcpy_symbol: copying const memory 320 bytes  to  symbol lambda+0 @0x180 ...
GPGPU-Sim: synchronize waiting for inactive GPU simulation
GPGPU-Sim API: Stream Manager State
GPGPU-Sim: detected inactive GPU simulation thread

GPGPU-Sim PTX: cudaLaunch for 0x0x403b30 (mode=performance simulation) on stream 0
GPGPU-Sim PTX: pushing kernel '_Z29Pathcalc_Portfolio_KernelGPU2Pf' to stream 0, gridDim= (64,1,1) blockDim = (64,1,1) 
kernel '_Z29Pathcalc_Portfolio_KernelGPU2Pf' transfer to GPU hardware scheduler
GPGPU-Sim uArch: Shader 1 bind to kernel 1 '_Z29Pathcalc_Portfolio_KernelGPU2Pf'
GPGPU-Sim uArch: CTA/core = 8, limited by: cta_limit
GPGPU-Sim uArch: core:  1, cta: 0 initialized @(1,0)
GPGPU-Sim uArch: Shader 2 bind to kernel 1 '_Z29Pathcalc_Portfolio_KernelGPU2Pf'
GPGPU-Sim uArch: core:  2, cta: 0 initialized @(1,0)
GPGPU-Sim uArch: Shader 3 bind to kernel 1 '_Z29Pathcalc_Portfolio_KernelGPU2Pf'
GPGPU-Sim uArch: core:  3, cta: 0 initialized @(1,0)
GPGPU-Sim uArch: Shader 4 bind to kernel 1 '_Z29Pathcalc_Portfolio_KernelGPU2Pf'
GPGPU-Sim uArch: core:  4, cta: 0 initialized @(1,0)
GPGPU-Sim uArch: Shader 5 bind to kernel 1 '_Z29Pathcalc_Portfolio_KernelGPU2Pf'
GPGPU-Sim uArch: core:  5, cta: 0 initialized @(1,0)
GPGPU-Sim uArch: Shader 6 bind to kernel 1 '_Z29Pathcalc_Portfolio_KernelGPU2Pf'
GPGPU-Sim uArch: core:  6, cta: 0 initialized @(1,0)
GPGPU-Sim uArch: Shader 7 bind to kernel 1 '_Z29Pathcalc_Portfolio_KernelGPU2Pf'
GPGPU-Sim uArch: core:  7, cta: 0 initialized @(1,0)
GPGPU-Sim uArch: Shader 8 bind to kernel 1 '_Z29Pathcalc_Portfolio_KernelGPU2Pf'
GPGPU-Sim uArch: core:  8, cta: 0 initialized @(1,0)
GPGPU-Sim uArch: Shader 9 bind to kernel 1 '_Z29Pathcalc_Portfolio_KernelGPU2Pf'
GPGPU-Sim uArch: core:  9, cta: 0 initialized @(1,0)
GPGPU-Sim uArch: Shader 10 bind to kernel 1 '_Z29Pathcalc_Portfolio_KernelGPU2Pf'
GPGPU-Sim uArch: core: 10, cta: 0 initialized @(1,0)
GPGPU-Sim uArch: Shader 11 bind to kernel 1 '_Z29Pathcalc_Portfolio_KernelGPU2Pf'
GPGPU-Sim uArch: core: 11, cta: 0 initialized @(1,0)
GPGPU-Sim uArch: Shader 12 bind to kernel 1 '_Z29Pathcalc_Portfolio_KernelGPU2Pf'
GPGPU-Sim uArch: core: 12, cta: 0 initialized @(1,0)
GPGPU-Sim uArch: Shader 13 bind to kernel 1 '_Z29Pathcalc_Portfolio_KernelGPU2Pf'
GPGPU-Sim uArch: core: 13, cta: 0 initialized @(1,0)
GPGPU-Sim uArch: Shader 14 bind to kernel 1 '_Z29Pathcalc_Portfolio_KernelGPU2Pf'
GPGPU-Sim uArch: core: 14, cta: 0 initialized @(1,0)
GPGPU-Sim uArch: Shader 0 bind to kernel 1 '_Z29Pathcalc_Portfolio_KernelGPU2Pf'
GPGPU-Sim uArch: core:  0, cta: 0 initialized @(1,0)
GPGPU-Sim uArch: core:  1, cta: 1 initialized @(2,0)
GPGPU-Sim uArch: core:  2, cta: 1 initialized @(2,0)
GPGPU-Sim uArch: core:  3, cta: 1 initialized @(2,0)
GPGPU-Sim uArch: core:  4, cta: 1 initialized @(2,0)
GPGPU-Sim uArch: core:  5, cta: 1 initialized @(2,0)
GPGPU-Sim uArch: core:  6, cta: 1 initialized @(2,0)
GPGPU-Sim uArch: core:  7, cta: 1 initialized @(2,0)
GPGPU-Sim uArch: core:  8, cta: 1 initialized @(2,0)
GPGPU-Sim uArch: core:  9, cta: 1 initialized @(2,0)
GPGPU-Sim uArch: core: 10, cta: 1 initialized @(2,0)
GPGPU-Sim uArch: core: 11, cta: 1 initialized @(2,0)
GPGPU-Sim uArch: core: 12, cta: 1 initialized @(2,0)
GPGPU-Sim uArch: core: 13, cta: 1 initialized @(2,0)
GPGPU-Sim uArch: core: 14, cta: 1 initialized @(2,0)
GPGPU-Sim uArch: core:  0, cta: 1 initialized @(2,0)
GPGPU-Sim uArch: core:  1, cta: 2 initialized @(3,0)
GPGPU-Sim uArch: core:  2, cta: 2 initialized @(3,0)
GPGPU-Sim uArch: core:  3, cta: 2 initialized @(3,0)
GPGPU-Sim uArch: core:  4, cta: 2 initialized @(3,0)
GPGPU-Sim uArch: core:  5, cta: 2 initialized @(3,0)
GPGPU-Sim uArch: core:  6, cta: 2 initialized @(3,0)
GPGPU-Sim uArch: core:  7, cta: 2 initialized @(3,0)
GPGPU-Sim uArch: core:  8, cta: 2 initialized @(3,0)
GPGPU-Sim uArch: core:  9, cta: 2 initialized @(3,0)
GPGPU-Sim uArch: core: 10, cta: 2 initialized @(3,0)
GPGPU-Sim uArch: core: 11, cta: 2 initialized @(3,0)
GPGPU-Sim uArch: core: 12, cta: 2 initialized @(3,0)
GPGPU-Sim uArch: core: 13, cta: 2 initialized @(3,0)
GPGPU-Sim uArch: core: 14, cta: 2 initialized @(3,0)
GPGPU-Sim uArch: core:  0, cta: 2 initialized @(3,0)
GPGPU-Sim uArch: core:  1, cta: 3 initialized @(4,0)
GPGPU-Sim uArch: core:  2, cta: 3 initialized @(4,0)
GPGPU-Sim uArch: core:  3, cta: 3 initialized @(4,0)
GPGPU-Sim uArch: core:  4, cta: 3 initialized @(4,0)
GPGPU-Sim uArch: core:  5, cta: 3 initialized @(4,0)
GPGPU-Sim uArch: core:  6, cta: 3 initialized @(4,0)
GPGPU-Sim uArch: core:  7, cta: 3 initialized @(4,0)
GPGPU-Sim uArch: core:  8, cta: 3 initialized @(4,0)
GPGPU-Sim uArch: core:  9, cta: 3 initialized @(4,0)
GPGPU-Sim uArch: core: 10, cta: 3 initialized @(4,0)
GPGPU-Sim uArch: core: 11, cta: 3 initialized @(4,0)
GPGPU-Sim uArch: core: 12, cta: 3 initialized @(4,0)
GPGPU-Sim uArch: core: 13, cta: 3 initialized @(4,0)
GPGPU-Sim uArch: core: 14, cta: 3 initialized @(4,0)
GPGPU-Sim uArch: core:  0, cta: 3 initialized @(4,0)
GPGPU-Sim uArch: core:  1, cta: 4 initialized @(5,0)
GPGPU-Sim uArch: core:  2, cta: 4 initialized @(5,0)
GPGPU-Sim uArch: core:  3, cta: 4 initialized @(5,0)
GPGPU-Sim uArch: core:  4, cta: 4 initialized @(5,0)
GPGPU-Sim uArch: cycles simulated: 500  inst.: 24576 (ipc=49.2) sim_rate=24576 (inst/sec) elapsed = 0:0:00:01 / Mon May 11 23:38:19 2015
GPGPU-Sim uArch: cycles simulated: 1000  inst.: 65536 (ipc=65.5) sim_rate=32768 (inst/sec) elapsed = 0:0:00:02 / Mon May 11 23:38:20 2015
GPGPU-Sim uArch: cycles simulated: 1500  inst.: 91552 (ipc=61.0) sim_rate=30517 (inst/sec) elapsed = 0:0:00:03 / Mon May 11 23:38:21 2015
GPGPU-Sim PTX: 100000 instructions simulated : ctaid=(54,0,0) tid=(63,0,0)
GPGPU-Sim PTX: 200000 instructions simulated : ctaid=(19,0,0) tid=(31,0,0)
GPGPU-Sim PTX: 300000 instructions simulated : ctaid=(2,0,0) tid=(63,0,0)
GPGPU-Sim uArch: cycles simulated: 2500  inst.: 290944 (ipc=116.4) sim_rate=58188 (inst/sec) elapsed = 0:0:00:05 / Mon May 11 23:38:23 2015
GPGPU-Sim uArch: cycles simulated: 3500  inst.: 355392 (ipc=101.5) sim_rate=59232 (inst/sec) elapsed = 0:0:00:06 / Mon May 11 23:38:24 2015
GPGPU-Sim PTX: 400000 instructions simulated : ctaid=(6,0,0) tid=(31,0,0)
GPGPU-Sim uArch: cycles simulated: 4000  inst.: 393408 (ipc=98.4) sim_rate=56201 (inst/sec) elapsed = 0:0:00:07 / Mon May 11 23:38:25 2015
GPGPU-Sim uArch: cycles simulated: 4500  inst.: 444704 (ipc=98.8) sim_rate=55588 (inst/sec) elapsed = 0:0:00:08 / Mon May 11 23:38:26 2015
GPGPU-Sim PTX: 500000 instructions simulated : ctaid=(6,0,0) tid=(31,0,0)
GPGPU-Sim uArch: cycles simulated: 5000  inst.: 490656 (ipc=98.1) sim_rate=54517 (inst/sec) elapsed = 0:0:00:09 / Mon May 11 23:38:27 2015
GPGPU-Sim uArch: cycles simulated: 5500  inst.: 542336 (ipc=98.6) sim_rate=54233 (inst/sec) elapsed = 0:0:00:10 / Mon May 11 23:38:28 2015
GPGPU-Sim PTX: 600000 instructions simulated : ctaid=(4,0,0) tid=(63,0,0)
GPGPU-Sim uArch: cycles simulated: 6500  inst.: 636320 (ipc=97.9) sim_rate=57847 (inst/sec) elapsed = 0:0:00:11 / Mon May 11 23:38:29 2015
GPGPU-Sim PTX: 700000 instructions simulated : ctaid=(5,0,0) tid=(31,0,0)
GPGPU-Sim uArch: cycles simulated: 7000  inst.: 690016 (ipc=98.6) sim_rate=57501 (inst/sec) elapsed = 0:0:00:12 / Mon May 11 23:38:30 2015
GPGPU-Sim uArch: cycles simulated: 7500  inst.: 730848 (ipc=97.4) sim_rate=56219 (inst/sec) elapsed = 0:0:00:13 / Mon May 11 23:38:31 2015
GPGPU-Sim uArch: cycles simulated: 8000  inst.: 784160 (ipc=98.0) sim_rate=56011 (inst/sec) elapsed = 0:0:00:14 / Mon May 11 23:38:32 2015
GPGPU-Sim PTX: 800000 instructions simulated : ctaid=(29,0,0) tid=(31,0,0)
GPGPU-Sim uArch: cycles simulated: 8500  inst.: 825696 (ipc=97.1) sim_rate=55046 (inst/sec) elapsed = 0:0:00:15 / Mon May 11 23:38:33 2015
GPGPU-Sim uArch: cycles simulated: 9000  inst.: 876448 (ipc=97.4) sim_rate=54778 (inst/sec) elapsed = 0:0:00:16 / Mon May 11 23:38:34 2015
GPGPU-Sim PTX: 900000 instructions simulated : ctaid=(20,0,0) tid=(31,0,0)
GPGPU-Sim uArch: cycles simulated: 9500  inst.: 925632 (ipc=97.4) sim_rate=54448 (inst/sec) elapsed = 0:0:00:17 / Mon May 11 23:38:35 2015
GPGPU-Sim uArch: cycles simulated: 10000  inst.: 978880 (ipc=97.9) sim_rate=54382 (inst/sec) elapsed = 0:0:00:18 / Mon May 11 23:38:36 2015
GPGPU-Sim PTX: 1000000 instructions simulated : ctaid=(14,0,0) tid=(31,0,0)
GPGPU-Sim uArch: cycles simulated: 10500  inst.: 1029504 (ipc=98.0) sim_rate=54184 (inst/sec) elapsed = 0:0:00:19 / Mon May 11 23:38:37 2015
GPGPU-Sim uArch: cycles simulated: 11000  inst.: 1085216 (ipc=98.7) sim_rate=54260 (inst/sec) elapsed = 0:0:00:20 / Mon May 11 23:38:38 2015
GPGPU-Sim PTX: 1100000 instructions simulated : ctaid=(6,0,0) tid=(63,0,0)
GPGPU-Sim uArch: cycles simulated: 11500  inst.: 1141472 (ipc=99.3) sim_rate=54355 (inst/sec) elapsed = 0:0:00:21 / Mon May 11 23:38:39 2015
GPGPU-Sim PTX: 1200000 instructions simulated : ctaid=(25,0,0) tid=(63,0,0)
GPGPU-Sim uArch: cycles simulated: 12000  inst.: 1200000 (ipc=100.0) sim_rate=54545 (inst/sec) elapsed = 0:0:00:22 / Mon May 11 23:38:40 2015
GPGPU-Sim uArch: cycles simulated: 12500  inst.: 1259552 (ipc=100.8) sim_rate=54763 (inst/sec) elapsed = 0:0:00:23 / Mon May 11 23:38:41 2015
GPGPU-Sim PTX: 1300000 instructions simulated : ctaid=(23,0,0) tid=(63,0,0)
GPGPU-Sim uArch: cycles simulated: 13000  inst.: 1319680 (ipc=101.5) sim_rate=54986 (inst/sec) elapsed = 0:0:00:24 / Mon May 11 23:38:42 2015
GPGPU-Sim PTX: 1400000 instructions simulated : ctaid=(34,0,0) tid=(31,0,0)
GPGPU-Sim uArch: cycles simulated: 14000  inst.: 1419680 (ipc=101.4) sim_rate=56787 (inst/sec) elapsed = 0:0:00:25 / Mon May 11 23:38:43 2015
GPGPU-Sim uArch: cycles simulated: 14500  inst.: 1470016 (ipc=101.4) sim_rate=56539 (inst/sec) elapsed = 0:0:00:26 / Mon May 11 23:38:44 2015
GPGPU-Sim PTX: 1500000 instructions simulated : ctaid=(15,0,0) tid=(63,0,0)
GPGPU-Sim uArch: cycles simulated: 15000  inst.: 1525248 (ipc=101.7) sim_rate=56490 (inst/sec) elapsed = 0:0:00:27 / Mon May 11 23:38:45 2015
GPGPU-Sim PTX: 1600000 instructions simulated : ctaid=(36,0,0) tid=(31,0,0)
GPGPU-Sim uArch: cycles simulated: 15500  inst.: 1593600 (ipc=102.8) sim_rate=56914 (inst/sec) elapsed = 0:0:00:28 / Mon May 11 23:38:46 2015
GPGPU-Sim uArch: cycles simulated: 16000  inst.: 1642400 (ipc=102.7) sim_rate=56634 (inst/sec) elapsed = 0:0:00:29 / Mon May 11 23:38:47 2015
GPGPU-Sim PTX: 1700000 instructions simulated : ctaid=(41,0,0) tid=(63,0,0)
GPGPU-Sim uArch: cycles simulated: 16500  inst.: 1713152 (ipc=103.8) sim_rate=57105 (inst/sec) elapsed = 0:0:00:30 / Mon May 11 23:38:48 2015
GPGPU-Sim uArch: cycles simulated: 17000  inst.: 1768352 (ipc=104.0) sim_rate=57043 (inst/sec) elapsed = 0:0:00:31 / Mon May 11 23:38:49 2015
GPGPU-Sim PTX: 1800000 instructions simulated : ctaid=(37,0,0) tid=(63,0,0)
GPGPU-Sim uArch: cycles simulated: 17500  inst.: 1845056 (ipc=105.4) sim_rate=57658 (inst/sec) elapsed = 0:0:00:32 / Mon May 11 23:38:50 2015
GPGPU-Sim PTX: 1900000 instructions simulated : ctaid=(56,0,0) tid=(31,0,0)
GPGPU-Sim uArch: cycles simulated: 18000  inst.: 1908032 (ipc=106.0) sim_rate=57819 (inst/sec) elapsed = 0:0:00:33 / Mon May 11 23:38:51 2015
GPGPU-Sim PTX: 2000000 instructions simulated : ctaid=(43,0,0) tid=(31,0,0)
GPGPU-Sim uArch: cycles simulated: 18500  inst.: 1983232 (ipc=107.2) sim_rate=58330 (inst/sec) elapsed = 0:0:00:34 / Mon May 11 23:38:52 2015
GPGPU-Sim uArch: cycles simulated: 19000  inst.: 2054624 (ipc=108.1) sim_rate=58703 (inst/sec) elapsed = 0:0:00:35 / Mon May 11 23:38:53 2015
GPGPU-Sim PTX: 2100000 instructions simulated : ctaid=(34,0,0) tid=(31,0,0)
GPGPU-Sim uArch: cycles simulated: 19500  inst.: 2116992 (ipc=108.6) sim_rate=58805 (inst/sec) elapsed = 0:0:00:36 / Mon May 11 23:38:54 2015
GPGPU-Sim PTX: 2200000 instructions simulated : ctaid=(11,0,0) tid=(63,0,0)
GPGPU-Sim uArch: cycles simulated: 20000  inst.: 2183936 (ipc=109.2) sim_rate=59025 (inst/sec) elapsed = 0:0:00:37 / Mon May 11 23:38:55 2015
GPGPU-Sim uArch: cycles simulated: 20500  inst.: 2255072 (ipc=110.0) sim_rate=59344 (inst/sec) elapsed = 0:0:00:38 / Mon May 11 23:38:56 2015
GPGPU-Sim PTX: 2300000 instructions simulated : ctaid=(42,0,0) tid=(63,0,0)
GPGPU-Sim uArch: cycles simulated: 21000  inst.: 2318240 (ipc=110.4) sim_rate=59442 (inst/sec) elapsed = 0:0:00:39 / Mon May 11 23:38:57 2015
GPGPU-Sim PTX: 2400000 instructions simulated : ctaid=(7,0,0) tid=(63,0,0)
GPGPU-Sim uArch: cycles simulated: 21500  inst.: 2397312 (ipc=111.5) sim_rate=59932 (inst/sec) elapsed = 0:0:00:40 / Mon May 11 23:38:58 2015
GPGPU-Sim uArch: cycles simulated: 22000  inst.: 2466528 (ipc=112.1) sim_rate=60159 (inst/sec) elapsed = 0:0:00:41 / Mon May 11 23:38:59 2015
GPGPU-Sim PTX: 2500000 instructions simulated : ctaid=(19,0,0) tid=(31,0,0)
GPGPU-Sim uArch: cycles simulated: 22500  inst.: 2543392 (ipc=113.0) sim_rate=60556 (inst/sec) elapsed = 0:0:00:42 / Mon May 11 23:39:00 2015
GPGPU-Sim PTX: 2600000 instructions simulated : ctaid=(47,0,0) tid=(31,0,0)
GPGPU-Sim uArch: cycles simulated: 23000  inst.: 2620288 (ipc=113.9) sim_rate=60936 (inst/sec) elapsed = 0:0:00:43 / Mon May 11 23:39:01 2015
GPGPU-Sim PTX: 2700000 instructions simulated : ctaid=(41,0,0) tid=(63,0,0)
GPGPU-Sim uArch: cycles simulated: 23500  inst.: 2693920 (ipc=114.6) sim_rate=61225 (inst/sec) elapsed = 0:0:00:44 / Mon May 11 23:39:02 2015
GPGPU-Sim uArch: cycles simulated: 24000  inst.: 2759840 (ipc=115.0) sim_rate=61329 (inst/sec) elapsed = 0:0:00:45 / Mon May 11 23:39:03 2015
GPGPU-Sim PTX: 2800000 instructions simulated : ctaid=(16,0,0) tid=(63,0,0)
GPGPU-Sim uArch: cycles simulated: 24500  inst.: 2840192 (ipc=115.9) sim_rate=60429 (inst/sec) elapsed = 0:0:00:47 / Mon May 11 23:39:05 2015
GPGPU-Sim PTX: 2900000 instructions simulated : ctaid=(55,0,0) tid=(31,0,0)
GPGPU-Sim uArch: cycles simulated: 25000  inst.: 2915424 (ipc=116.6) sim_rate=60738 (inst/sec) elapsed = 0:0:00:48 / Mon May 11 23:39:06 2015
GPGPU-Sim PTX: 3000000 instructions simulated : ctaid=(49,0,0) tid=(63,0,0)
GPGPU-Sim uArch: cycles simulated: 25500  inst.: 3005504 (ipc=117.9) sim_rate=61336 (inst/sec) elapsed = 0:0:00:49 / Mon May 11 23:39:07 2015
GPGPU-Sim uArch: cycles simulated: 26000  inst.: 3075520 (ipc=118.3) sim_rate=61510 (inst/sec) elapsed = 0:0:00:50 / Mon May 11 23:39:08 2015
GPGPU-Sim PTX: 3100000 instructions simulated : ctaid=(32,0,0) tid=(31,0,0)
GPGPU-Sim uArch: cycles simulated: 26500  inst.: 3151328 (ipc=118.9) sim_rate=61790 (inst/sec) elapsed = 0:0:00:51 / Mon May 11 23:39:09 2015
GPGPU-Sim PTX: 3200000 instructions simulated : ctaid=(33,0,0) tid=(63,0,0)
GPGPU-Sim uArch: cycles simulated: 27000  inst.: 3242016 (ipc=120.1) sim_rate=62346 (inst/sec) elapsed = 0:0:00:52 / Mon May 11 23:39:10 2015
GPGPU-Sim PTX: 3300000 instructions simulated : ctaid=(30,0,0) tid=(31,0,0)
GPGPU-Sim uArch: cycles simulated: 27500  inst.: 3318912 (ipc=120.7) sim_rate=62620 (inst/sec) elapsed = 0:0:00:53 / Mon May 11 23:39:11 2015
GPGPU-Sim PTX: 3400000 instructions simulated : ctaid=(58,0,0) tid=(31,0,0)
GPGPU-Sim uArch: cycles simulated: 28000  inst.: 3396480 (ipc=121.3) sim_rate=62897 (inst/sec) elapsed = 0:0:00:54 / Mon May 11 23:39:12 2015
GPGPU-Sim PTX: 3500000 instructions simulated : ctaid=(50,0,0) tid=(63,0,0)
GPGPU-Sim uArch: cycles simulated: 28500  inst.: 3489376 (ipc=122.4) sim_rate=63443 (inst/sec) elapsed = 0:0:00:55 / Mon May 11 23:39:13 2015
GPGPU-Sim uArch: cycles simulated: 29000  inst.: 3569472 (ipc=123.1) sim_rate=63740 (inst/sec) elapsed = 0:0:00:56 / Mon May 11 23:39:14 2015
GPGPU-Sim PTX: 3600000 instructions simulated : ctaid=(36,0,0) tid=(31,0,0)
GPGPU-Sim uArch: cycles simulated: 29500  inst.: 3662688 (ipc=124.2) sim_rate=64257 (inst/sec) elapsed = 0:0:00:57 / Mon May 11 23:39:15 2015
GPGPU-Sim PTX: 3700000 instructions simulated : ctaid=(59,0,0) tid=(63,0,0)
GPGPU-Sim uArch: cycles simulated: 30000  inst.: 3736448 (ipc=124.5) sim_rate=64421 (inst/sec) elapsed = 0:0:00:58 / Mon May 11 23:39:16 2015
GPGPU-Sim PTX: 3800000 instructions simulated : ctaid=(62,0,0) tid=(31,0,0)
GPGPU-Sim uArch: cycles simulated: 30500  inst.: 3840544 (ipc=125.9) sim_rate=65093 (inst/sec) elapsed = 0:0:00:59 / Mon May 11 23:39:17 2015
GPGPU-Sim PTX: 3900000 instructions simulated : ctaid=(53,0,0) tid=(63,0,0)
GPGPU-Sim uArch: cycles simulated: 31000  inst.: 3938176 (ipc=127.0) sim_rate=65636 (inst/sec) elapsed = 0:0:01:00 / Mon May 11 23:39:18 2015
GPGPU-Sim PTX: 4000000 instructions simulated : ctaid=(22,0,0) tid=(31,0,0)
GPGPU-Sim uArch: cycles simulated: 31500  inst.: 4043936 (ipc=128.4) sim_rate=65224 (inst/sec) elapsed = 0:0:01:02 / Mon May 11 23:39:20 2015
GPGPU-Sim PTX: 4100000 instructions simulated : ctaid=(58,0,0) tid=(63,0,0)
GPGPU-Sim uArch: cycles simulated: 32000  inst.: 4163264 (ipc=130.1) sim_rate=66083 (inst/sec) elapsed = 0:0:01:03 / Mon May 11 23:39:21 2015
GPGPU-Sim PTX: 4200000 instructions simulated : ctaid=(18,0,0) tid=(31,0,0)
GPGPU-Sim PTX: 4300000 instructions simulated : ctaid=(63,0,0) tid=(63,0,0)
GPGPU-Sim uArch: cycles simulated: 32500  inst.: 4279072 (ipc=131.7) sim_rate=66860 (inst/sec) elapsed = 0:0:01:04 / Mon May 11 23:39:22 2015
GPGPU-Sim PTX: 4400000 instructions simulated : ctaid=(16,0,0) tid=(63,0,0)
GPGPU-Sim uArch: cycles simulated: 33000  inst.: 4391296 (ipc=133.1) sim_rate=67558 (inst/sec) elapsed = 0:0:01:05 / Mon May 11 23:39:23 2015
GPGPU-Sim PTX: 4500000 instructions simulated : ctaid=(27,0,0) tid=(31,0,0)
GPGPU-Sim uArch: cycles simulated: 33500  inst.: 4498464 (ipc=134.3) sim_rate=68158 (inst/sec) elapsed = 0:0:01:06 / Mon May 11 23:39:24 2015
GPGPU-Sim PTX: 4600000 instructions simulated : ctaid=(43,0,0) tid=(63,0,0)
GPGPU-Sim uArch: cycles simulated: 34000  inst.: 4614112 (ipc=135.7) sim_rate=68867 (inst/sec) elapsed = 0:0:01:07 / Mon May 11 23:39:25 2015
GPGPU-Sim PTX: 4700000 instructions simulated : ctaid=(29,0,0) tid=(31,0,0)
GPGPU-Sim uArch: cycles simulated: 34500  inst.: 4733728 (ipc=137.2) sim_rate=69613 (inst/sec) elapsed = 0:0:01:08 / Mon May 11 23:39:26 2015
GPGPU-Sim PTX: 4800000 instructions simulated : ctaid=(31,0,0) tid=(31,0,0)
GPGPU-Sim uArch: cycles simulated: 35000  inst.: 4855872 (ipc=138.7) sim_rate=70374 (inst/sec) elapsed = 0:0:01:09 / Mon May 11 23:39:27 2015
GPGPU-Sim PTX: 4900000 instructions simulated : ctaid=(44,0,0) tid=(63,0,0)
GPGPU-Sim PTX: 5000000 instructions simulated : ctaid=(54,0,0) tid=(63,0,0)
GPGPU-Sim uArch: cycles simulated: 35500  inst.: 4980256 (ipc=140.3) sim_rate=71146 (inst/sec) elapsed = 0:0:01:10 / Mon May 11 23:39:28 2015
GPGPU-Sim PTX: 5100000 instructions simulated : ctaid=(31,0,0) tid=(63,0,0)
GPGPU-Sim uArch: cycles simulated: 36000  inst.: 5103200 (ipc=141.8) sim_rate=70877 (inst/sec) elapsed = 0:0:01:12 / Mon May 11 23:39:30 2015
GPGPU-Sim PTX: 5200000 instructions simulated : ctaid=(20,0,0) tid=(31,0,0)
GPGPU-Sim uArch: cycles simulated: 36500  inst.: 5225760 (ipc=143.2) sim_rate=71585 (inst/sec) elapsed = 0:0:01:13 / Mon May 11 23:39:31 2015
GPGPU-Sim PTX: 5300000 instructions simulated : ctaid=(11,0,0) tid=(63,0,0)
GPGPU-Sim uArch: cycles simulated: 37000  inst.: 5347136 (ipc=144.5) sim_rate=72258 (inst/sec) elapsed = 0:0:01:14 / Mon May 11 23:39:32 2015
GPGPU-Sim PTX: 5400000 instructions simulated : ctaid=(13,0,0) tid=(31,0,0)
GPGPU-Sim uArch: cycles simulated: 37500  inst.: 5466272 (ipc=145.8) sim_rate=72883 (inst/sec) elapsed = 0:0:01:15 / Mon May 11 23:39:33 2015
GPGPU-Sim PTX: 5500000 instructions simulated : ctaid=(11,0,0) tid=(63,0,0)
GPGPU-Sim PTX: 5600000 instructions simulated : ctaid=(9,0,0) tid=(31,0,0)
GPGPU-Sim uArch: cycles simulated: 38000  inst.: 5585696 (ipc=147.0) sim_rate=73496 (inst/sec) elapsed = 0:0:01:16 / Mon May 11 23:39:34 2015
GPGPU-Sim PTX: 5700000 instructions simulated : ctaid=(31,0,0) tid=(63,0,0)
GPGPU-Sim uArch: cycles simulated: 38500  inst.: 5707232 (ipc=148.2) sim_rate=74119 (inst/sec) elapsed = 0:0:01:17 / Mon May 11 23:39:35 2015
GPGPU-Sim PTX: 5800000 instructions simulated : ctaid=(30,0,0) tid=(63,0,0)
GPGPU-Sim uArch: cycles simulated: 39000  inst.: 5831104 (ipc=149.5) sim_rate=74757 (inst/sec) elapsed = 0:0:01:18 / Mon May 11 23:39:36 2015
GPGPU-Sim PTX: 5900000 instructions simulated : ctaid=(36,0,0) tid=(63,0,0)
GPGPU-Sim uArch: cycles simulated: 39500  inst.: 5954976 (ipc=150.8) sim_rate=75379 (inst/sec) elapsed = 0:0:01:19 / Mon May 11 23:39:37 2015
GPGPU-Sim PTX: 6000000 instructions simulated : ctaid=(21,0,0) tid=(63,0,0)
GPGPU-Sim PTX: 6100000 instructions simulated : ctaid=(29,0,0) tid=(31,0,0)
GPGPU-Sim uArch: cycles simulated: 40000  inst.: 6076800 (ipc=151.9) sim_rate=75960 (inst/sec) elapsed = 0:0:01:20 / Mon May 11 23:39:38 2015
GPGPU-Sim PTX: 6200000 instructions simulated : ctaid=(13,0,0) tid=(31,0,0)
GPGPU-Sim uArch: cycles simulated: 40500  inst.: 6197344 (ipc=153.0) sim_rate=76510 (inst/sec) elapsed = 0:0:01:21 / Mon May 11 23:39:39 2015
GPGPU-Sim PTX: 6300000 instructions simulated : ctaid=(21,0,0) tid=(63,0,0)
GPGPU-Sim uArch: cycles simulated: 41000  inst.: 6317920 (ipc=154.1) sim_rate=77047 (inst/sec) elapsed = 0:0:01:22 / Mon May 11 23:39:40 2015
GPGPU-Sim PTX: 6400000 instructions simulated : ctaid=(38,0,0) tid=(31,0,0)
GPGPU-Sim uArch: cycles simulated: 41500  inst.: 6437568 (ipc=155.1) sim_rate=77561 (inst/sec) elapsed = 0:0:01:23 / Mon May 11 23:39:41 2015
GPGPU-Sim PTX: 6500000 instructions simulated : ctaid=(49,0,0) tid=(31,0,0)
GPGPU-Sim uArch: cycles simulated: 42000  inst.: 6557952 (ipc=156.1) sim_rate=78070 (inst/sec) elapsed = 0:0:01:24 / Mon May 11 23:39:42 2015
GPGPU-Sim PTX: 6600000 instructions simulated : ctaid=(4,0,0) tid=(63,0,0)
GPGPU-Sim PTX: 6700000 instructions simulated : ctaid=(31,0,0) tid=(31,0,0)
GPGPU-Sim uArch: cycles simulated: 42500  inst.: 6677056 (ipc=157.1) sim_rate=77640 (inst/sec) elapsed = 0:0:01:26 / Mon May 11 23:39:44 2015
GPGPU-Sim PTX: 6800000 instructions simulated : ctaid=(0,0,0) tid=(63,0,0)
GPGPU-Sim uArch: cycles simulated: 43000  inst.: 6799904 (ipc=158.1) sim_rate=78159 (inst/sec) elapsed = 0:0:01:27 / Mon May 11 23:39:45 2015
GPGPU-Sim PTX: 6900000 instructions simulated : ctaid=(56,0,0) tid=(31,0,0)
GPGPU-Sim uArch: cycles simulated: 43500  inst.: 6920704 (ipc=159.1) sim_rate=78644 (inst/sec) elapsed = 0:0:01:28 / Mon May 11 23:39:46 2015
GPGPU-Sim PTX: 7000000 instructions simulated : ctaid=(34,0,0) tid=(31,0,0)
GPGPU-Sim uArch: cycles simulated: 44000  inst.: 7039520 (ipc=160.0) sim_rate=79095 (inst/sec) elapsed = 0:0:01:29 / Mon May 11 23:39:47 2015
GPGPU-Sim PTX: 7100000 instructions simulated : ctaid=(47,0,0) tid=(31,0,0)
GPGPU-Sim uArch: cycles simulated: 44500  inst.: 7159296 (ipc=160.9) sim_rate=79547 (inst/sec) elapsed = 0:0:01:30 / Mon May 11 23:39:48 2015
GPGPU-Sim PTX: 7200000 instructions simulated : ctaid=(13,0,0) tid=(63,0,0)
GPGPU-Sim PTX: 7300000 instructions simulated : ctaid=(34,0,0) tid=(63,0,0)
GPGPU-Sim uArch: cycles simulated: 45000  inst.: 7278912 (ipc=161.8) sim_rate=79988 (inst/sec) elapsed = 0:0:01:31 / Mon May 11 23:39:49 2015
GPGPU-Sim PTX: 7400000 instructions simulated : ctaid=(55,0,0) tid=(31,0,0)
GPGPU-Sim uArch: cycles simulated: 45500  inst.: 7398176 (ipc=162.6) sim_rate=80414 (inst/sec) elapsed = 0:0:01:32 / Mon May 11 23:39:50 2015
GPGPU-Sim PTX: 7500000 instructions simulated : ctaid=(63,0,0) tid=(63,0,0)
GPGPU-Sim uArch: cycles simulated: 46000  inst.: 7519520 (ipc=163.5) sim_rate=80855 (inst/sec) elapsed = 0:0:01:33 / Mon May 11 23:39:51 2015
GPGPU-Sim PTX: 7600000 instructions simulated : ctaid=(35,0,0) tid=(63,0,0)
GPGPU-Sim uArch: cycles simulated: 46500  inst.: 7641216 (ipc=164.3) sim_rate=81289 (inst/sec) elapsed = 0:0:01:34 / Mon May 11 23:39:52 2015
GPGPU-Sim PTX: 7700000 instructions simulated : ctaid=(19,0,0) tid=(63,0,0)
GPGPU-Sim uArch: cycles simulated: 47000  inst.: 7763904 (ipc=165.2) sim_rate=81725 (inst/sec) elapsed = 0:0:01:35 / Mon May 11 23:39:53 2015
GPGPU-Sim PTX: 7800000 instructions simulated : ctaid=(31,0,0) tid=(31,0,0)
GPGPU-Sim PTX: 7900000 instructions simulated : ctaid=(27,0,0) tid=(63,0,0)
GPGPU-Sim uArch: cycles simulated: 47500  inst.: 7887072 (ipc=166.0) sim_rate=82157 (inst/sec) elapsed = 0:0:01:36 / Mon May 11 23:39:54 2015
GPGPU-Sim PTX: 8000000 instructions simulated : ctaid=(32,0,0) tid=(31,0,0)
GPGPU-Sim uArch: cycles simulated: 48000  inst.: 8010144 (ipc=166.9) sim_rate=82578 (inst/sec) elapsed = 0:0:01:37 / Mon May 11 23:39:55 2015
GPGPU-Sim PTX: 8100000 instructions simulated : ctaid=(41,0,0) tid=(31,0,0)
GPGPU-Sim uArch: cycles simulated: 48500  inst.: 8130464 (ipc=167.6) sim_rate=82125 (inst/sec) elapsed = 0:0:01:39 / Mon May 11 23:39:57 2015
GPGPU-Sim PTX: 8200000 instructions simulated : ctaid=(61,0,0) tid=(63,0,0)
GPGPU-Sim uArch: cycles simulated: 49000  inst.: 8249440 (ipc=168.4) sim_rate=82494 (inst/sec) elapsed = 0:0:01:40 / Mon May 11 23:39:58 2015
GPGPU-Sim PTX: 8300000 instructions simulated : ctaid=(55,0,0) tid=(63,0,0)
GPGPU-Sim uArch: cycles simulated: 49500  inst.: 8371264 (ipc=169.1) sim_rate=82883 (inst/sec) elapsed = 0:0:01:41 / Mon May 11 23:39:59 2015
GPGPU-Sim PTX: 8400000 instructions simulated : ctaid=(39,0,0) tid=(31,0,0)
GPGPU-Sim PTX: 8500000 instructions simulated : ctaid=(4,0,0) tid=(63,0,0)
GPGPU-Sim uArch: cycles simulated: 50000  inst.: 8493888 (ipc=169.9) sim_rate=83273 (inst/sec) elapsed = 0:0:01:42 / Mon May 11 23:40:00 2015
GPGPU-Sim PTX: 8600000 instructions simulated : ctaid=(54,0,0) tid=(63,0,0)
GPGPU-Sim uArch: cycles simulated: 50500  inst.: 8614176 (ipc=170.6) sim_rate=83632 (inst/sec) elapsed = 0:0:01:43 / Mon May 11 23:40:01 2015
GPGPU-Sim PTX: 8700000 instructions simulated : ctaid=(43,0,0) tid=(63,0,0)
GPGPU-Sim uArch: cycles simulated: 51000  inst.: 8737760 (ipc=171.3) sim_rate=84016 (inst/sec) elapsed = 0:0:01:44 / Mon May 11 23:40:02 2015
GPGPU-Sim PTX: 8800000 instructions simulated : ctaid=(48,0,0) tid=(31,0,0)
GPGPU-Sim uArch: cycles simulated: 51500  inst.: 8859360 (ipc=172.0) sim_rate=84374 (inst/sec) elapsed = 0:0:01:45 / Mon May 11 23:40:03 2015
GPGPU-Sim PTX: 8900000 instructions simulated : ctaid=(19,0,0) tid=(63,0,0)
GPGPU-Sim PTX: 9000000 instructions simulated : ctaid=(45,0,0) tid=(63,0,0)
GPGPU-Sim uArch: cycles simulated: 52000  inst.: 8981760 (ipc=172.7) sim_rate=84733 (inst/sec) elapsed = 0:0:01:46 / Mon May 11 23:40:04 2015
GPGPU-Sim PTX: 9100000 instructions simulated : ctaid=(46,0,0) tid=(63,0,0)
GPGPU-Sim uArch: cycles simulated: 52500  inst.: 9096736 (ipc=173.3) sim_rate=85016 (inst/sec) elapsed = 0:0:01:47 / Mon May 11 23:40:05 2015
GPGPU-Sim PTX: 9200000 instructions simulated : ctaid=(36,0,0) tid=(63,0,0)
GPGPU-Sim uArch: cycles simulated: 53000  inst.: 9214560 (ipc=173.9) sim_rate=85320 (inst/sec) elapsed = 0:0:01:48 / Mon May 11 23:40:06 2015
GPGPU-Sim PTX: 9300000 instructions simulated : ctaid=(27,0,0) tid=(63,0,0)
GPGPU-Sim uArch: cycles simulated: 53500  inst.: 9335136 (ipc=174.5) sim_rate=85643 (inst/sec) elapsed = 0:0:01:49 / Mon May 11 23:40:07 2015
GPGPU-Sim PTX: 9400000 instructions simulated : ctaid=(15,0,0) tid=(31,0,0)
GPGPU-Sim uArch: cycles simulated: 54000  inst.: 9455840 (ipc=175.1) sim_rate=85187 (inst/sec) elapsed = 0:0:01:51 / Mon May 11 23:40:09 2015
GPGPU-Sim PTX: 9500000 instructions simulated : ctaid=(34,0,0) tid=(63,0,0)
GPGPU-Sim PTX: 9600000 instructions simulated : ctaid=(26,0,0) tid=(63,0,0)
GPGPU-Sim uArch: cycles simulated: 54500  inst.: 9577312 (ipc=175.7) sim_rate=85511 (inst/sec) elapsed = 0:0:01:52 / Mon May 11 23:40:10 2015
GPGPU-Sim PTX: 9700000 instructions simulated : ctaid=(18,0,0) tid=(63,0,0)
GPGPU-Sim uArch: cycles simulated: 55000  inst.: 9697504 (ipc=176.3) sim_rate=85818 (inst/sec) elapsed = 0:0:01:53 / Mon May 11 23:40:11 2015
GPGPU-Sim PTX: 9800000 instructions simulated : ctaid=(33,0,0) tid=(31,0,0)
GPGPU-Sim uArch: cycles simulated: 55500  inst.: 9818656 (ipc=176.9) sim_rate=86128 (inst/sec) elapsed = 0:0:01:54 / Mon May 11 23:40:12 2015
GPGPU-Sim PTX: 9900000 instructions simulated : ctaid=(10,0,0) tid=(31,0,0)
GPGPU-Sim uArch: cycles simulated: 56000  inst.: 9938848 (ipc=177.5) sim_rate=86424 (inst/sec) elapsed = 0:0:01:55 / Mon May 11 23:40:13 2015
GPGPU-Sim PTX: 10000000 instructions simulated : ctaid=(11,0,0) tid=(31,0,0)
GPGPU-Sim uArch: cycles simulated: 56500  inst.: 10057536 (ipc=178.0) sim_rate=86702 (inst/sec) elapsed = 0:0:01:56 / Mon May 11 23:40:14 2015
GPGPU-Sim PTX: 10100000 instructions simulated : ctaid=(43,0,0) tid=(31,0,0)
GPGPU-Sim PTX: 10200000 instructions simulated : ctaid=(62,0,0) tid=(63,0,0)
GPGPU-Sim uArch: cycles simulated: 57000  inst.: 10176480 (ipc=178.5) sim_rate=86978 (inst/sec) elapsed = 0:0:01:57 / Mon May 11 23:40:15 2015
GPGPU-Sim PTX: 10300000 instructions simulated : ctaid=(17,0,0) tid=(63,0,0)
GPGPU-Sim uArch: cycles simulated: 57500  inst.: 10294688 (ipc=179.0) sim_rate=87243 (inst/sec) elapsed = 0:0:01:58 / Mon May 11 23:40:16 2015
GPGPU-Sim PTX: 10400000 instructions simulated : ctaid=(54,0,0) tid=(63,0,0)
GPGPU-Sim uArch: cycles simulated: 58000  inst.: 10414112 (ipc=179.6) sim_rate=87513 (inst/sec) elapsed = 0:0:01:59 / Mon May 11 23:40:17 2015
GPGPU-Sim PTX: 10500000 instructions simulated : ctaid=(53,0,0) tid=(63,0,0)
GPGPU-Sim uArch: cycles simulated: 58500  inst.: 10535552 (ipc=180.1) sim_rate=87796 (inst/sec) elapsed = 0:0:02:00 / Mon May 11 23:40:18 2015
GPGPU-Sim PTX: 10600000 instructions simulated : ctaid=(22,0,0) tid=(63,0,0)
GPGPU-Sim uArch: cycles simulated: 59000  inst.: 10652832 (ipc=180.6) sim_rate=88039 (inst/sec) elapsed = 0:0:02:01 / Mon May 11 23:40:19 2015
GPGPU-Sim PTX: 10700000 instructions simulated : ctaid=(56,0,0) tid=(31,0,0)
GPGPU-Sim uArch: cycles simulated: 59500  inst.: 10771456 (ipc=181.0) sim_rate=88290 (inst/sec) elapsed = 0:0:02:02 / Mon May 11 23:40:20 2015
GPGPU-Sim PTX: 10800000 instructions simulated : ctaid=(3,0,0) tid=(63,0,0)
GPGPU-Sim PTX: 10900000 instructions simulated : ctaid=(40,0,0) tid=(63,0,0)
GPGPU-Sim uArch: cycles simulated: 60000  inst.: 10889696 (ipc=181.5) sim_rate=88534 (inst/sec) elapsed = 0:0:02:03 / Mon May 11 23:40:21 2015
GPGPU-Sim PTX: 11000000 instructions simulated : ctaid=(19,0,0) tid=(31,0,0)
GPGPU-Sim uArch: cycles simulated: 60500  inst.: 11007776 (ipc=181.9) sim_rate=88062 (inst/sec) elapsed = 0:0:02:05 / Mon May 11 23:40:23 2015
GPGPU-Sim PTX: 11100000 instructions simulated : ctaid=(41,0,0) tid=(31,0,0)
GPGPU-Sim uArch: cycles simulated: 61000  inst.: 11122752 (ipc=182.3) sim_rate=88275 (inst/sec) elapsed = 0:0:02:06 / Mon May 11 23:40:24 2015
GPGPU-Sim PTX: 11200000 instructions simulated : ctaid=(57,0,0) tid=(31,0,0)
GPGPU-Sim uArch: cycles simulated: 61500  inst.: 11235424 (ipc=182.7) sim_rate=88467 (inst/sec) elapsed = 0:0:02:07 / Mon May 11 23:40:25 2015
GPGPU-Sim PTX: 11300000 instructions simulated : ctaid=(26,0,0) tid=(31,0,0)
GPGPU-Sim uArch: cycles simulated: 62000  inst.: 11352128 (ipc=183.1) sim_rate=88688 (inst/sec) elapsed = 0:0:02:08 / Mon May 11 23:40:26 2015
GPGPU-Sim PTX: 11400000 instructions simulated : ctaid=(12,0,0) tid=(31,0,0)
GPGPU-Sim uArch: cycles simulated: 62500  inst.: 11467904 (ipc=183.5) sim_rate=88898 (inst/sec) elapsed = 0:0:02:09 / Mon May 11 23:40:27 2015
GPGPU-Sim PTX: 11500000 instructions simulated : ctaid=(10,0,0) tid=(31,0,0)
[...]
mf_lat_table:0 	0 	0 	0 	0 	0 	0 	113515 	1827433 	40602 	5610 	0 	0 	0 	0 	0 	0 	0 	0 	0 	0 	0 	0 	0 	0 	0 	0 	0 	0 	0 	0 	0 	
icnt2mem_lat_table:0 	0 	0 	2375149 	495318 	9243 	10234 	12306 	20746 	799 	0 	0 	0 	0 	0 	0 	0 	0 	0 	0 	0 	0 	0 	0 	
icnt2sh_lat_table:0 	0 	0 	1385961 	210247 	942 	0 	0 	0 	0 	0 	1030 	2742 	5826 	10625 	258 	2 	3 	9 	45 	144406 	223287 	1777 	0 	
mf_lat_pw_table:0 	0 	0 	0 	0 	0 	0 	1475 	8968 	122 	2 	0 	0 	0 	0 	0 	0 	0 	0 	0 	0 	0 	0 	0 	0 	0 	0 	0 	0 	0 	0 	0 	
maximum concurrent accesses to same row:
dram[0]:        28        26        38        48        20        25        24        32        28        28        25        24        28        26        25        27 
dram[1]:        28        30        38        50        30        26        26        32        28        24        22        26        28        28        26        28 
dram[2]:        26        26        40        42        24        22        20        18        30        28        25        24        26        24        22        26 
dram[3]:        27        30        42        40        21        23        28        28        24        32        27        24        25        28        28        25 
dram[4]:        28        28        46        40        26        30        28        28        24        34        28        25        28        28        26        26 
dram[5]:        26        30        42        44        21        19        32        28        26        34        26        24        24        26        24        24 
maximum service time to same row:
dram[0]:     23272     34278     36762     45901     45503     48445     38594     35242     36597     22618     26990     16875     16440     19343     19631     35975 
dram[1]:     20559     50495     42420     25999     24617     62235     48584     18765     26974     30306     19561     17731     37931     42625     21246     48016 
dram[2]:     44756     41325     47101     32450     55416     55465     66116     45996     19968     45746     28733     14717     12914     25703     20640     19039 
dram[3]:     20206     65494     78603     29230     45161     73782     43750     27600     26512     27894     25650     13527     18684     23571     34888     18942 
dram[4]:     30352     32891     42873     37110     41097     61016     28751     45150     28210     37928     40457     18028     16119     45566     22118     17894 
dram[5]:     35371     25546     41666     23391     52062     33275     28606     23861     23591     50466     19010     21541     15709     28541     28794     20001 
average row accesses per activate:
dram[0]:  1.587626  1.608017  1.646212  1.627418  1.615798  1.632857  1.615584  1.620758  1.607762  1.619837  1.591201  1.587562  1.570675  1.567579  1.557805  1.568337 
dram[1]:  1.638041  1.654964  1.682067  1.690105  1.674425  1.687924  1.662647  1.648921  1.630014  1.664363  1.631658  1.621835  1.612620  1.609784  1.595730  1.610195 
dram[2]:  1.583774  1.570466  1.614997  1.616665  1.600166  1.606963  1.603156  1.586025  1.597812  1.576543  1.553686  1.563759  1.571019  1.537660  1.536263  1.560338 
dram[3]:  1.602459  1.596204  1.634323  1.646228  1.630064  1.622079  1.628108  1.610147  1.606670  1.597985  1.596599  1.595446  1.580731  1.560497  1.565576  1.573059 
dram[4]:  1.635927  1.658173  1.690532  1.699622  1.680472  1.680995  1.668629  1.659854  1.630636  1.661249  1.634983  1.618151  1.602916  1.618628  1.615106  1.596156 
dram[5]:  1.570231  1.582067  1.602835  1.617676  1.594879  1.610470  1.586949  1.583759  1.566404  1.601350  1.572695  1.558310  1.550069  1.557839  1.536375  1.545962 
average row locality = 3264205/2031392 = 1.606881
number of total memory accesses made:
dram[0]:         0         0         0         0         0         0         0         0         0         0         0         0         0         0         0         0 
dram[1]:         0         0         0         0         0         0         0         0         0         0         0         0         0         0         0         0 
dram[2]:         0         0         0         0         0         0         0         0         0         0         0         0         0         0         0         0 
dram[3]:         0         0         0         0         0         0         0         0         0         0         0         0         0         0         0         0 
dram[4]:         0         0         0         0         0         0         0         0         0         0         0         0         0         0         0         0 
dram[5]:         0         0         0         0         0         0         0         0         0         0         0         0         0         0         0         0 
total accesses: 0
min_bank_accesses = 0!
min_chip_accesses = 0!
number of total read accesses:
dram[0]:     19808     19865     19774     19244     19521     20764     20834     20000     20853     21144     20999     21485     22212     21100     21534     21982 
dram[1]:     19890     19993     19735     19499     19799     20985     21008     20297     21002     21455     21263     21646     22326     21433     21856     22418 
dram[2]:     21105     20077     20233     20172     20506     21375     21663     20570     21613     21883     21875     22317     23219     21821     22077     23324 
dram[3]:     20328     18958     19263     19925     20176     19986     20907     20084     20503     21352     21756     20946     21634     21204     21558     22351 
dram[4]:     20223     19694     19542     20117     20191     20587     21029     20375     20582     21887     22123     21053     21632     21981     22134     22333 
dram[5]:     20664     20097     19715     20854     20857     20768     21372     20980     21011     22427     22691     21360     21989     22727     22736     22912 
total reads: 2019128
bank skew: 23324/18958 = 1.23
chip skew: 343830/330931 = 1.04
number of total write accesses:
dram[0]:     12089     11866     11774     11384     11756     12721     12796     12044     12828     12939     12962     13462     14135     13161     13406     14038 
dram[1]:     12345     12062     11977     11724     12072     12868     13043     12411     13093     13227     13289     13770     14374     13480     13799     14383 
dram[2]:     12764     12094     12096     11977     12259     13104     13281     12478     13141     13564     13591     13859     14597     13722     13933     14703 
dram[3]:     12383     11405     11392     12025     12171     12149     12746     12193     12400     13377     13639     12828     13493     13464     13597     14166 
dram[4]:     12507     11803     11650     12254     12432     12458     12986     12437     12727     13682     13930     13145     13770     13870     13962     14369 
dram[5]:     12683     11981     11723     12551     12779     12456     13087     12800     12969     13882     14195     13208     13768     14267     14369     14508 
total reads: 1245077
bank skew: 14703/11384 = 1.29
chip skew: 211226/203361 = 1.04
average mf latency per bank:
dram[0]:        179       177       180       182       183       180       179       180       177       177       177       177       177       178       177       178
dram[1]:        179       177       180       181       181       178       178       179       177       175       176       176       176       177       176       175
dram[2]:        178       181       182       182       182       182       180       183       178       179       179       178       176       180       179       177
dram[3]:        177       181       181       181       181       182       178       180       177       178       177       177       176       179       178       176
dram[4]:        178       178       181       180       182       180       178       181       179       175       176       178       178       177       176       176
dram[5]:        180       179       183       181       183       182       180       182       180       177       177       180       179       177       177       178
maximum mf latency per bank:
dram[0]:       1280      1374      1477      1655      1432      1428      1277      1480      1448      1337      1197      1358      1319      1485      1324      1316
dram[1]:       1384      1282      1389      1555      1357      1387      1441      1510      1339      1507      1402      1373      1274      1256      1231      1487
dram[2]:       1261      1475      1387      1702      1524      1445      1342      1594      1390      1529      1375      1356      1460      1460      1342      1539
dram[3]:       1362      1427      1683      1305      1383      1479      1457      1536      1384      1340      1329      1340      1370      1247      1449      1381
dram[4]:       1356      1233      1397      1372      1302      1427      1515      1481      1446      1518      1268      1236      1300      1342      1377      1266
dram[5]:       1297      1287      1631      1397      1431      1510      1456      1680      1352      1417      1496      1436      1270      1410      1547      1520

Number of Memory Banks Accessed per Memory Operation per Warp (from 0):
0	0	0	0	0	0	0	0	0	0	0	0	0	0	0	0	0	0	0	0	0	0	0	0	0	0	0	0	0	0	0	0	0	0	0	0	0	0	0	0	0	0	0	0	0	0	0	0	0	0	0	0	0	0	0	0	0	0	0	0	0	0	0	0	0	0	0	0	0	0	0	0	0	0	0	0	0	0	0	0	0	0	0	0	0	0	0	0	0	0	0	0	0	0	0	0	
Average # of Memory Banks Accessed per Memory Operation per Warp=-nan

position of mrq chosen
0	0	0	0	0	0	0	0	0	0	0	0	0	0	0	0	

average position of mrq chosen = -nan
Memory Partition 0: 
Cache L2_bank_000:
MSHR contents
MSHR: tag=0x80007c80, atomic=0 1 entries : 0x7f25c33c23e0 :  mf: uid=23192740, sid05:w09, part=0, addr=0x80007c80, load , size=128, unknown  status = IN_PARTITION_DRAM (5286752), 

Cache L2_bank_001:
MSHR contents

In Dram Latency Queue (total = 0): 
DRAM[0]: 16 bks, busW=4 BL=8 CL=12, tRRD=2 tCCD=6, tRCD=12 tRAS=28 tRP=12 tRC=40
n_cmd=6978515 n_nop=5241573 n_act=333999 n_pre=333983 n_req=534480 n_rd=662238 n_write=406722 bw_util=0.3064
n_activity=5905716 dram_eff=0.362
bk0: 39616a 5935648i bk1: 39730a 5940042i bk2: 39548a 5953355i bk3: 38488a 5974093i bk4: 39042a 5947315i bk5: 41528a 5872601i bk6: 41668a 5864490i bk7: 40000a 5901539i bk8: 41706a 5896127i bk9: 42288a 5882500i bk10: 41998a 5867469i bk11: 42970a 5823609i bk12: 44424a 5765057i bk13: 42200a 5814824i bk14: 43068a 5781888i bk15: 43964a 5747404i 
dram_util_bins: 0 0 0 0 0 0 0 0 0 0
dram_eff_bins: 0 0 0 0 0 0 0 0 0 0
mrqq: max=16 avg=1.4735
Memory Partition 1: 
Cache L2_bank_002:
MSHR contents

Cache L2_bank_003:
MSHR contents

In Dram Latency Queue (total = 0): 
DRAM[1]: 16 bks, busW=4 BL=8 CL=12, tRRD=2 tCCD=6, tRCD=12 tRAS=28 tRP=12 tRC=40
n_cmd=6978515 n_nop=5233097 n_act=330195 n_pre=330179 n_req=542522 n_rd=669210 n_write=415834 bw_util=0.311
n_activity=5971319 dram_eff=0.3634
bk0: 39780a 5946750i bk1: 39986a 5951758i bk2: 39470a 5961464i bk3: 38998a 5983074i bk4: 39598a 5952255i bk5: 41970a 5885351i bk6: 42016a 5870333i bk7: 40594a 5899410i bk8: 42004a 5896340i bk9: 42910a 5878844i bk10: 42526a 5863383i bk11: 43292a 5824815i bk12: 44652a 5775780i bk13: 42866a 5811908i bk14: 43712a 5776666i bk15: 44836a 5735307i 
dram_util_bins: 0 0 0 0 0 0 0 0 0 0
dram_eff_bins: 0 0 0 0 0 0 0 0 0 0
mrqq: max=16 avg=1.50805
Memory Partition 2: 
Cache L2_bank_004:
MSHR contents

Cache L2_bank_005:
MSHR contents

In Dram Latency Queue (total = 0): 
DRAM[2]: 16 bks, busW=4 BL=8 CL=12, tRRD=2 tCCD=6, tRCD=12 tRAS=28 tRP=12 tRC=40
n_cmd=6978515 n_nop=5165477 n_act=351534 n_pre=351518 n_req=554993 n_rd=687660 n_write=422326 bw_util=0.3181
n_activity=5985430 dram_eff=0.3709
bk0: 42210a 5850461i bk1: 40154a 5902788i bk2: 40466a 5905626i bk3: 40344a 5908726i bk4: 41012a 5878524i bk5: 42750a 5815496i bk6: 43326a 5794045i bk7: 41140a 5843253i bk8: 43226a 5842070i bk9: 43766a 5800700i bk10: 43750a 5787809i bk11: 44634a 5753714i bk12: 46438a 5687956i bk13: 43642a 5741047i bk14: 44154a 5718634i bk15: 46648a 5645247i 
dram_util_bins: 0 0 0 0 0 0 0 0 0 0
dram_eff_bins: 0 0 0 0 0 0 0 0 0 0
mrqq: max=16 avg=1.52753
Memory Partition 3: 
Cache L2_bank_006:
MSHR contents

Cache L2_bank_007:
MSHR contents

In Dram Latency Queue (total = 0): 
DRAM[3]: 16 bks, busW=4 BL=8 CL=12, tRRD=2 tCCD=6, tRCD=12 tRAS=28 tRP=12 tRC=40
n_cmd=6978515 n_nop=5242557 n_act=333628 n_pre=333612 n_req=534359 n_rd=661862 n_write=406856 bw_util=0.3063
n_activity=5900263 dram_eff=0.3623
bk0: 40656a 5911288i bk1: 37916a 5984604i bk2: 38526a 5977151i bk3: 39850a 5940073i bk4: 40352a 5921843i bk5: 39972a 5916548i bk6: 41814a 5863882i bk7: 40168a 5901708i bk8: 41006a 5923063i bk9: 42704a 5851240i bk10: 43512a 5822890i bk11: 41892a 5861355i bk12: 43268a 5804274i bk13: 42408a 5808433i bk14: 43116a 5780681i bk15: 44702a 5725353i 
dram_util_bins: 0 0 0 0 0 0 0 0 0 0
dram_eff_bins: 0 0 0 0 0 0 0 0 0 0
mrqq: max=16 avg=1.46751
Memory Partition 4: 
Cache L2_bank_008:
MSHR contents

Cache L2_bank_009:
MSHR contents

In Dram Latency Queue (total = 0): 
DRAM[4]: 16 bks, busW=4 BL=8 CL=12, tRRD=2 tCCD=6, tRCD=12 tRAS=28 tRP=12 tRC=40
n_cmd=6978515 n_nop=5230953 n_act=330324 n_pre=330308 n_req=543465 n_rd=670966 n_write=415964 bw_util=0.3115
n_activity=5973400 dram_eff=0.3639
bk0: 40446a 5927271i bk1: 39388a 5966027i bk2: 39084a 5982425i bk3: 40234a 5948723i bk4: 40382a 5927154i bk5: 41174a 5906361i bk6: 42058a 5863011i bk7: 40750a 5897433i bk8: 41164a 5921140i bk9: 43774a 5854379i bk10: 44246a 5819739i bk11: 42106a 5857106i bk12: 43264a 5806405i bk13: 43962a 5788504i bk14: 44268a 5773163i bk15: 44666a 5740411i 
dram_util_bins: 0 0 0 0 0 0 0 0 0 0
dram_eff_bins: 0 0 0 0 0 0 0 0 0 0
mrqq: max=16 avg=1.52234
Memory Partition 5: 
Cache L2_bank_010:
MSHR contents

Cache L2_bank_011:
MSHR contents

In Dram Latency Queue (total = 0): 
DRAM[5]: 16 bks, busW=4 BL=8 CL=12, tRRD=2 tCCD=6, tRCD=12 tRAS=28 tRP=12 tRC=40
n_cmd=6978515 n_nop=5166329 n_act=351715 n_pre=351699 n_req=554386 n_rd=686320 n_write=422452 bw_util=0.3178
n_activity=5982348 dram_eff=0.3707
bk0: 41328a 5861824i bk1: 40194a 5904078i bk2: 39430a 5928693i bk3: 41708a 5868854i bk4: 41714a 5849053i bk5: 41536a 5853637i bk6: 42744a 5802316i bk7: 41960a 5812205i bk8: 42022a 5858294i bk9: 44854a 5779328i bk10: 45382a 5746744i bk11: 42720a 5800565i bk12: 43978a 5757993i bk13: 45454a 5701685i bk14: 45472a 5682744i bk15: 45824a 5659655i 
dram_util_bins: 0 0 0 0 0 0 0 0 0 0
dram_eff_bins: 0 0 0 0 0 0 0 0 0 0
mrqq: max=16 avg=1.5284

========= L2 cache stats =========
L2_cache_bank[0]: Access = 239934, Miss = 165535, Miss_rate = 0.690, Pending_hits = 5, Reservation_fails = 2450
L2_cache_bank[1]: Access = 239601, Miss = 165584, Miss_rate = 0.691, Pending_hits = 13, Reservation_fails = 1774
L2_cache_bank[2]: Access = 242489, Miss = 166879, Miss_rate = 0.688, Pending_hits = 10, Reservation_fails = 388
L2_cache_bank[3]: Access = 242188, Miss = 167726, Miss_rate = 0.693, Pending_hits = 13, Reservation_fails = 625
L2_cache_bank[4]: Access = 248984, Miss = 172291, Miss_rate = 0.692, Pending_hits = 9, Reservation_fails = 223
L2_cache_bank[5]: Access = 248411, Miss = 171539, Miss_rate = 0.691, Pending_hits = 9, Reservation_fails = 578
L2_cache_bank[6]: Access = 239959, Miss = 166125, Miss_rate = 0.692, Pending_hits = 0, Reservation_fails = 42
L2_cache_bank[7]: Access = 239774, Miss = 164806, Miss_rate = 0.687, Pending_hits = 7, Reservation_fails = 515
L2_cache_bank[8]: Access = 242533, Miss = 167456, Miss_rate = 0.690, Pending_hits = 1, Reservation_fails = 140
L2_cache_bank[9]: Access = 242459, Miss = 168027, Miss_rate = 0.693, Pending_hits = 1, Reservation_fails = 212
L2_cache_bank[10]: Access = 248701, Miss = 171035, Miss_rate = 0.688, Pending_hits = 4, Reservation_fails = 141
L2_cache_bank[11]: Access = 248762, Miss = 172125, Miss_rate = 0.692, Pending_hits = 2, Reservation_fails = 298
L2_total_cache_accesses = 2923795
L2_total_cache_misses = 2019128
L2_total_cache_miss_rate = 0.6906
L2_total_cache_pending_hits = 74
L2_total_cache_reservation_fails = 7386
L2_total_cache_breakdown:
	L2_cache_stats_breakdown[LOCAL_ACC_R][HIT] = 98638
	L2_cache_stats_breakdown[LOCAL_ACC_R][HIT_RESERVED] = 8
	L2_cache_stats_breakdown[LOCAL_ACC_R][MISS] = 1498354
	L2_cache_stats_breakdown[LOCAL_ACC_R][RESERVATION_FAIL] = 376
	L2_cache_stats_breakdown[CONST_ACC_R][HIT] = 122
	L2_cache_stats_breakdown[CONST_ACC_R][HIT_RESERVED] = 19
	L2_cache_stats_breakdown[CONST_ACC_R][MISS] = 9
	L2_cache_stats_breakdown[CONST_ACC_R][RESERVATION_FAIL] = 536
	L2_cache_stats_breakdown[GLOBAL_ACC_W][MISS] = 384
	L2_cache_stats_breakdown[LOCAL_ACC_W][HIT] = 3095
	L2_cache_stats_breakdown[LOCAL_ACC_W][MISS] = 386531
	L2_cache_stats_breakdown[LOCAL_ACC_W][RESERVATION_FAIL] = 4842
	L2_cache_stats_breakdown[L1_WRBK_ACC][HIT] = 802235
	L2_cache_stats_breakdown[L1_WRBK_ACC][MISS] = 133788
	L2_cache_stats_breakdown[L1_WRBK_ACC][RESERVATION_FAIL] = 47
	L2_cache_stats_breakdown[INST_ACC_R][HIT] = 503
	L2_cache_stats_breakdown[INST_ACC_R][HIT_RESERVED] = 47
	L2_cache_stats_breakdown[INST_ACC_R][MISS] = 62
	L2_cache_stats_breakdown[INST_ACC_R][RESERVATION_FAIL] = 1585
L2_cache_data_port_util = 0.094
L2_cache_fill_port_util = 0.127

icnt_total_pkts_mem_to_simt=8378520
icnt_total_pkts_simt_to_mem=8227927
LD_mem_lat_dist  0 0 0 0 0 0 0 0 0 0 0 0 0 0 0 0 0 0 0 0 0 0 0 0 0 0 0
ST_mem_lat_dist  0 0 0 0 0 0 0 0 0 0 0 0 0 0 0 0 0 0 0 0 0 0 0 0 0 0 0
----------------------------Interconnect-DETAILS--------------------------------
Class 0:
Packet latency average = 10.3291
	minimum = 6
	maximum = 510
Network latency average = 9.84667
	minimum = 6
	maximum = 499
Slowest packet = 1008730
Flit latency average = 7.70468
	minimum = 6
	maximum = 495
Slowest flit = 3635127
Fragmentation average = 0.0166249
	minimum = 0
	maximum = 370
Injected packet rate average = 0.0384486
	minimum = 0.0356357 (at node 16)
	maximum = 0.0471296 (at node 5)
Accepted packet rate average = 0.0384486
	minimum = 0.0271662 (at node 12)
	maximum = 0.0519127 (at node 19)
Injected flit rate average = 0.127794
	minimum = 0.103551 (at node 12)
	maximum = 0.154366 (at node 19)
Accepted flit rate average= 0.127794
	minimum = 0.112038 (at node 0)
	maximum = 0.142654 (at node 19)
Injected packet length average = 3.32375
Accepted packet length average = 3.32375
Total in-flight flits = 0 (0 measured)
====== Overall Traffic Statistics ======
====== Traffic class 0 ======
Packet latency average = 10.6394 (2 samples)
	minimum = 6 (2 samples)
	maximum = 512 (2 samples)
Network latency average = 10.1088 (2 samples)
	minimum = 6 (2 samples)
	maximum = 483 (2 samples)
Flit latency average = 7.82961 (2 samples)
	minimum = 6 (2 samples)
	maximum = 479 (2 samples)
Fragmentation average = 0.0378469 (2 samples)
	minimum = 0 (2 samples)
	maximum = 377.5 (2 samples)
Injected packet rate average = 0.0314515 (2 samples)
	minimum = 0.0272512 (2 samples)
	maximum = 0.0403581 (2 samples)
Accepted packet rate average = 0.0314515 (2 samples)
	minimum = 0.0207733 (2 samples)
	maximum = 0.0444693 (2 samples)
Injected flit rate average = 0.107954 (2 samples)
	minimum = 0.092599 (2 samples)
	maximum = 0.128288 (2 samples)
Accepted flit rate average = 0.107954 (2 samples)
	minimum = 0.0894347 (2 samples)
	maximum = 0.127644 (2 samples)
Injected packet size average = 3.43239 (2 samples)
Accepted packet size average = 3.43239 (2 samples)
Hops average = 1 (2 samples)
----------------------------END-of-Interconnect-DETAILS-------------------------


gpgpu_simulation_time = 0 days, 2 hrs, 51 min, 6 sec (10266 sec)
gpgpu_simulation_rate = 97323 (inst/sec)
gpgpu_simulation_rate = 514 (cycle/sec)
GPGPU-Sim: synchronize waiting for inactive GPU simulation
GPGPU-Sim API: Stream Manager State
GPGPU-Sim: detected inactive GPU simulation thread
v  =    224.32334900
Lb =     21.34812355
Time (Greeks)   : 7171523.500000 msec

Press ENTER to exit...
