

        *** GPGPU-Sim Simulator Version 3.2.2  [build 0] ***


GPGPU-Sim PTX: simulation mode 0 (can change with PTX_SIM_MODE_FUNC environment variable:
               1=functional simulation only, 0=detailed performance simulator)
GPGPU-Sim: Configuration options:

-network_mode                           1 # Interconnection network mode
-inter_config_file   config_fermi_islip.icnt # Interconnection network config file
-gpgpu_ptx_use_cuobjdump                    1 # Use cuobjdump to extract ptx and sass from binaries
-gpgpu_experimental_lib_support                    0 # Try to extract code from cuda libraries [Broken because of unknown cudaGetExportTable]
-gpgpu_ptx_convert_to_ptxplus                    0 # Convert SASS (native ISA) to ptxplus and run ptxplus
-gpgpu_ptx_force_max_capability                   20 # Force maximum compute capability
-gpgpu_ptx_inst_debug_to_file                    0 # Dump executed instructions' debug information to file
-gpgpu_ptx_inst_debug_file       inst_debug.txt # Executed instructions' debug output file
-gpgpu_ptx_inst_debug_thread_uid                    1 # Thread UID for executed instructions' debug output
-gpgpu_simd_model                       1 # 1 = post-dominator
-gpgpu_shader_core_pipeline          1536:256:32 # shader core pipeline config, i.e., {<nthread>:<warpsize>}
-gpgpu_tex_cache:l1  4:128:24,L:R:m:N:L,F:128:4,128:2 # per-shader L1 texture cache  (READ-ONLY) config  {<nsets>:<bsize>:<assoc>,<rep>:<wr>:<alloc>:<wr_alloc>,<mshr>:<N>:<merge>,<mq>:<rf>}
-gpgpu_const_cache:l1 64:64:2,L:R:f:N:L,A:2:32,4 # per-shader L1 constant memory cache  (READ-ONLY) config  {<nsets>:<bsize>:<assoc>,<rep>:<wr>:<alloc>:<wr_alloc>,<mshr>:<N>:<merge>,<mq>} 
-gpgpu_cache:il1     4:128:4,L:R:f:N:L,A:2:32,4 # shader L1 instruction cache config  {<nsets>:<bsize>:<assoc>,<rep>:<wr>:<alloc>:<wr_alloc>,<mshr>:<N>:<merge>,<mq>} 
-gpgpu_cache:dl1     32:128:4,L:L:m:N:H,A:32:8,8 # per-shader L1 data cache config  {<nsets>:<bsize>:<assoc>,<rep>:<wr>:<alloc>:<wr_alloc>,<mshr>:<N>:<merge>,<mq> | none}
-gpgpu_cache:dl1PrefL1                 none # per-shader L1 data cache config  {<nsets>:<bsize>:<assoc>,<rep>:<wr>:<alloc>:<wr_alloc>,<mshr>:<N>:<merge>,<mq> | none}
-gpgpu_cache:dl1PreShared                 none # per-shader L1 data cache config  {<nsets>:<bsize>:<assoc>,<rep>:<wr>:<alloc>:<wr_alloc>,<mshr>:<N>:<merge>,<mq> | none}
-gmem_skip_L1D                          0 # global memory access skip L1D cache (implements -Xptxas -dlcm=cg, default=no skip)
-gpgpu_perfect_mem                      0 # enable perfect memory mode (no cache miss)
-n_regfile_gating_group                    4 # group of lanes that should be read/written together)
-gpgpu_clock_gated_reg_file                    0 # enable clock gated reg file for power calculations
-gpgpu_clock_gated_lanes                    0 # enable clock gated lanes for power calculations
-gpgpu_shader_registers                32768 # Number of registers per shader core. Limits number of concurrent CTAs. (default 8192)
-gpgpu_shader_cta                       8 # Maximum number of concurrent CTAs in shader (default 8)
-gpgpu_num_cta_barriers                   16 # Maximum number of named barriers per CTA (default 16)
-gpgpu_n_clusters                      15 # number of processing clusters
-gpgpu_n_cores_per_cluster                    1 # number of simd cores per cluster
-gpgpu_n_cluster_ejection_buffer_size                    8 # number of packets in ejection buffer
-gpgpu_n_ldst_response_buffer_size                    2 # number of response packets in ld/st unit ejection buffer
-gpgpu_shmem_size                   16384 # Size of shared memory per shader core (default 16kB)
-gpgpu_shmem_size                   49152 # Size of shared memory per shader core (default 16kB)
-gpgpu_shmem_size_PrefL1                16384 # Size of shared memory per shader core (default 16kB)
-gpgpu_shmem_size_PrefShared                16384 # Size of shared memory per shader core (default 16kB)
-gpgpu_shmem_num_banks                   32 # Number of banks in the shared memory in each shader core (default 16)
-gpgpu_shmem_limited_broadcast                    0 # Limit shared memory to do one broadcast per cycle (default on)
-gpgpu_shmem_warp_parts                    1 # Number of portions a warp is divided into for shared memory bank conflict check 
-gpgpu_warpdistro_shader                   -1 # Specify which shader core to collect the warp size distribution from
-gpgpu_warp_issue_shader                    0 # Specify which shader core to collect the warp issue distribution from
-gpgpu_local_mem_map                    1 # Mapping from local memory space address to simulated GPU physical address space (default = enabled)
-gpgpu_num_reg_banks                   16 # Number of register banks (default = 8)
-gpgpu_reg_bank_use_warp_id                    0 # Use warp ID in mapping registers to banks (default = off)
-gpgpu_operand_collector_num_units_sp                    6 # number of collector units (default = 4)
-gpgpu_operand_collector_num_units_sfu                    8 # number of collector units (default = 4)
-gpgpu_operand_collector_num_units_mem                    2 # number of collector units (default = 2)
-gpgpu_operand_collector_num_units_gen                    0 # number of collector units (default = 0)
-gpgpu_operand_collector_num_in_ports_sp                    2 # number of collector unit in ports (default = 1)
-gpgpu_operand_collector_num_in_ports_sfu                    1 # number of collector unit in ports (default = 1)
-gpgpu_operand_collector_num_in_ports_mem                    1 # number of collector unit in ports (default = 1)
-gpgpu_operand_collector_num_in_ports_gen                    0 # number of collector unit in ports (default = 0)
-gpgpu_operand_collector_num_out_ports_sp                    2 # number of collector unit in ports (default = 1)
-gpgpu_operand_collector_num_out_ports_sfu                    1 # number of collector unit in ports (default = 1)
-gpgpu_operand_collector_num_out_ports_mem                    1 # number of collector unit in ports (default = 1)
-gpgpu_operand_collector_num_out_ports_gen                    0 # number of collector unit in ports (default = 0)
-gpgpu_coalesce_arch                   13 # Coalescing arch (default = 13, anything else is off for now)
-gpgpu_num_sched_per_core                    1 # Number of warp schedulers per core
-gpgpu_max_insn_issue_per_warp                    1 # Max number of instructions that can be issued per warp in one cycle by scheduler
-gpgpu_simt_core_sim_order                    1 # Select the simulation order of cores in a cluster (0=Fix, 1=Round-Robin)
-gpgpu_pipeline_widths        2,1,1,2,1,1,2 # Pipeline widths ID_OC_SP,ID_OC_SFU,ID_OC_MEM,OC_EX_SP,OC_EX_SFU,OC_EX_MEM,EX_WB
-gpgpu_num_sp_units                     2 # Number of SP units (default=1)
-gpgpu_num_sfu_units                    1 # Number of SF units (default=1)
-gpgpu_num_mem_units                    1 # Number if ldst units (default=1) WARNING: not hooked up to anything
-gpgpu_scheduler                      gto # Scheduler configuration: < lrr | gto | two_level_active > If two_level_active:<num_active_warps>:<inner_prioritization>:<outer_prioritization>For complete list of prioritization values see shader.h enum scheduler_prioritization_typeDefault: gto
-gpgpu_dram_scheduler                    1 # 0 = fifo, 1 = FR-FCFS (defaul)
-gpgpu_dram_partition_queues              8:8:8:8 # i2$:$2d:d2$:$2i
-l2_ideal                               0 # Use a ideal L2 cache that always hit
-gpgpu_cache:dl2     64:128:8,L:B:m:W:L,A:32:4,4:0,32 # unified banked L2 data cache config  {<nsets>:<bsize>:<assoc>,<rep>:<wr>:<alloc>:<wr_alloc>,<mshr>:<N>:<merge>,<mq>}
-gpgpu_cache:dl2_texture_only                    0 # L2 cache used for texture only
-gpgpu_n_mem                            6 # number of memory modules (e.g. memory controllers) in gpu
-gpgpu_n_sub_partition_per_mchannel                    2 # number of memory subpartition in each memory module
-gpgpu_n_mem_per_ctrlr                    2 # number of memory chips per memory controller
-gpgpu_memlatency_stat                   14 # track and display latency statistics 0x2 enables MC, 0x4 enables queue logs
-gpgpu_frfcfs_dram_sched_queue_size                   16 # 0 = unlimited (default); # entries per chip
-gpgpu_dram_return_queue_size                  116 # 0 = unlimited (default); # entries per chip
-gpgpu_dram_buswidth                    4 # default = 4 bytes (8 bytes per cycle at DDR)
-gpgpu_dram_burst_length                    8 # Burst length of each DRAM request (default = 4 data bus cycle)
-dram_data_command_freq_ratio                    4 # Frequency ratio between DRAM data bus and command bus (default = 2 times, i.e. DDR)
-gpgpu_dram_timing_opt nbk=16:CCD=2:RRD=6:RCD=12:RAS=28:RP=12:RC=40: CL=12:WL=4:CDLR=5:WR=12:nbkgrp=4:CCDL=3:RTPL=2 # DRAM timing parameters = {nbk:tCCD:tRRD:tRCD:tRAS:tRP:tRC:CL:WL:tCDLR:tWR:nbkgrp:tCCDL:tRTPL}
-rop_latency                          120 # ROP queue latency (default 85)
-dram_latency                         100 # DRAM latency (default 30)
-gpgpu_mem_addr_mapping dramid@8;00000000.00000000.00000000.00000000.0000RRRR.RRRRRRRR.BBBCCCCB.CCSSSSSS # mapping memory address to dram model {dramid@<start bit>;<memory address map>}
-gpgpu_mem_addr_test                    0 # run sweep test to check address mapping for aliased address
-gpgpu_mem_address_mask                    1 # 0 = old addressing mask, 1 = new addressing mask, 2 = new add. mask + flipped bank sel and chip sel bits
-gpuwattch_xml_file  gpuwattch_gtx480.xml # GPUWattch XML file
-power_simulation_enabled                    1 # Turn on power simulator (1=On, 0=Off)
-power_per_cycle_dump                    0 # Dump detailed power output each cycle
-power_trace_enabled                    0 # produce a file for the power trace (1=On, 0=Off)
-power_trace_zlevel                     6 # Compression level of the power trace output log (0=no comp, 9=highest)
-steady_power_levels_enabled                    0 # produce a file for the steady power levels (1=On, 0=Off)
-steady_state_definition                  8:4 # allowed deviation:number of samples
-gpgpu_max_cycle                        0 # terminates gpu simulation early (0 = no limit)
-gpgpu_max_insn                         0 # terminates gpu simulation early (0 = no limit)
-gpgpu_max_cta                          0 # terminates gpu simulation early (0 = no limit)
-gpgpu_runtime_stat                   500 # display runtime statistics such as dram utilization {<freq>:<flag>}
-liveness_message_freq                    1 # Minimum number of seconds between simulation liveness messages (0 = always print)
-gpgpu_flush_l1_cache                    0 # Flush L1 cache at the end of each kernel call
-gpgpu_flush_l2_cache                    0 # Flush L2 cache at the end of each kernel call
-gpgpu_deadlock_detect                    1 # Stop the simulation at deadlock (1=on (default), 0=off)
-gpgpu_ptx_instruction_classification                    0 # if enabled will classify ptx instruction types per kernel (Max 255 kernels now)
-gpgpu_ptx_sim_mode                     0 # Select between Performance (default) or Functional simulation (1)
-gpgpu_clock_domains 700.0:700.0:700.0:924.0 # Clock Domain Frequencies in MhZ {<Core Clock>:<ICNT Clock>:<L2 Clock>:<DRAM Clock>}
-gpgpu_max_concurrent_kernel                    8 # maximum kernels that can run concurrently on GPU
-gpgpu_cflog_interval                    0 # Interval between each snapshot in control flow logger
-visualizer_enabled                     0 # Turn on visualizer output (1=On, 0=Off)
-visualizer_outputfile                 NULL # Specifies the output log file for visualizer
-visualizer_zlevel                      6 # Compression level of the visualizer output log (0=no comp, 9=highest)
-trace_enabled                          0 # Turn on traces
-trace_components                    none # comma seperated list of traces to enable. Complete list found in trace_streams.tup. Default none
-trace_sampling_core                    0 # The core which is printed using CORE_DPRINTF. Default 0
-trace_sampling_memory_partition                   -1 # The memory partition which is printed using MEMPART_DPRINTF. Default -1 (i.e. all)
-enable_ptx_file_line_stats                    1 # Turn on PTX source line statistic profiling. (1 = On)
-ptx_line_stats_filename gpgpu_inst_stats.txt # Output file for PTX source line statistics.
-save_embedded_ptx                      0 # saves ptx files embedded in binary as <n>.ptx
-keep                                   0 # keep intermediate files created by GPGPU-Sim when interfacing with external programs
-gpgpu_ptx_save_converted_ptxplus                    0 # Saved converted ptxplus to a file
-ptx_opcode_latency_int         4,13,4,5,145 # Opcode latencies for integers <ADD,MAX,MUL,MAD,DIV>Default 1,1,19,25,145
-ptx_opcode_latency_fp          4,13,4,5,39 # Opcode latencies for single precision floating points <ADD,MAX,MUL,MAD,DIV>Default 1,1,1,1,30
-ptx_opcode_latency_dp         8,19,8,8,330 # Opcode latencies for double precision floating points <ADD,MAX,MUL,MAD,DIV>Default 8,8,8,8,335
-ptx_opcode_initiation_int            1,2,2,1,8 # Opcode initiation intervals for integers <ADD,MAX,MUL,MAD,DIV>Default 1,1,4,4,32
-ptx_opcode_initiation_fp            1,2,1,1,4 # Opcode initiation intervals for single precision floating points <ADD,MAX,MUL,MAD,DIV>Default 1,1,1,1,5
-ptx_opcode_initiation_dp         8,16,8,8,130 # Opcode initiation intervals for double precision floating points <ADD,MAX,MUL,MAD,DIV>Default 8,8,8,8,130
ESHA: SIMD Width was found to be : 32
DRAM Timing Options:
nbk                                    16 # number of banks
CCD                                     2 # column to column delay
RRD                                     6 # minimal delay between activation of rows in different banks
RCD                                    12 # row to column delay
RAS                                    28 # time needed to activate row
RP                                     12 # time needed to precharge (deactivate) row
RC                                     40 # row cycle time
CDLR                                    5 # switching from write to read (changes tWTR)
WR                                     12 # last data-in to row precharge
CL                                     12 # CAS latency
WL                                      4 # Write latency
nbkgrp                                  4 # number of bank groups
CCDL                                    3 # column to column delay between accesses to different bank groups
RTPL                                    2 # read to precharge delay between accesses to different bank groups
Total number of memory sub partition = 12
addr_dec_mask[CHIP]  = 0000000000000000 	high:64 low:0
addr_dec_mask[BK]    = 000000000000e100 	high:16 low:8
addr_dec_mask[ROW]   = 000000000fff0000 	high:28 low:16
addr_dec_mask[COL]   = 0000000000001eff 	high:13 low:0
addr_dec_mask[BURST] = 000000000000003f 	high:6 low:0
sub_partition_id_mask = 0000000000000100
GPGPU-Sim uArch: clock freqs: 700000000.000000:700000000.000000:700000000.000000:924000000.000000
GPGPU-Sim uArch: clock periods: 0.00000000142857142857:0.00000000142857142857:0.00000000142857142857:0.00000000108225108225
ESHA_CHANGED: in shader config simd is  32 
*** Initializing Memory Statistics ***
GPGPU-Sim uArch: interconnect node map (shaderID+MemID to icntID)
GPGPU-Sim uArch: Memory nodes ID start from index: 15
GPGPU-Sim uArch:    0   1   2   3   4
GPGPU-Sim uArch:    5   6   7   8   9
GPGPU-Sim uArch:   10  11  12  13  14
GPGPU-Sim uArch:   15  16  17  18  19
GPGPU-Sim uArch:   20  21  22  23  24
GPGPU-Sim uArch:   25  26
GPGPU-Sim uArch: interconnect node reverse map (icntID to shaderID+MemID)
GPGPU-Sim uArch: Memory nodes start from ID: 15
GPGPU-Sim uArch:    0   1   2   3   4
GPGPU-Sim uArch:    5   6   7   8   9
GPGPU-Sim uArch:   10  11  12  13  14
GPGPU-Sim uArch:   15  16  17  18  19
GPGPU-Sim uArch:   20  21  22  23  24
GPGPU-Sim uArch:   25  26
36731beff5187ff21689d20a58a6b791  /home/kishore/project_source/gpu_class_proj/gpgpusim-benchmarks-master/bin/release/LIB
GPGPU-Sim uArch: performance model initialization complete.
GPGPU-Sim PTX: __cudaRegisterFatBinary, fat_cubin_handle = 1, filename=libor.cu
self exe links to: /home/kishore/project_source/gpu_class_proj/gpgpusim-benchmarks-master/bin/release/LIB
Running md5sum using "md5sum /home/kishore/project_source/gpu_class_proj/gpgpusim-benchmarks-master/bin/release/LIB "
Running cuobjdump using "$CUDA_INSTALL_PATH/bin/cuobjdump -ptx -elf -sass /home/kishore/project_source/gpu_class_proj/gpgpusim-benchmarks-master/bin/release/LIB > _cuobjdump_complete_output_M53zbf"
Parsing file _cuobjdump_complete_output_M53zbf
######### cuobjdump parser ########
## Adding new section PTX
Adding ptx filename: _cuobjdump_1.ptx
Adding arch: sm_10
Adding identifier: libor.cu
## Adding new section ELF
Adding arch: sm_10
Adding identifier: libor.cu
## Adding new section ELF
Adding arch: sm_20
Adding identifier: libor.cu
## Adding new section PTX
Adding ptx filename: _cuobjdump_2.ptx
Adding arch: sm_20
Adding identifier: libor.cu
Done parsing!!!
GPGPU-Sim PTX: __cudaRegisterFunction _Z29Pathcalc_Portfolio_KernelGPU2Pf : hostFun 0x0x403b30, fat_cubin_handle = 1
GPGPU-Sim PTX: allocating stack frame region for .param "__cudaparmf1__Z9path_calcPfS_" from 0x0 to 0x8
GPGPU-Sim PTX: allocating stack frame region for .param "__cudaparmf2__Z9path_calcPfS_" from 0x8 to 0x10
GPGPU-Sim PTX: allocating stack frame region for .param "__cudaparmf1__Z12path_calc_b1PfS_S_" from 0x0 to 0x8
GPGPU-Sim PTX: allocating stack frame region for .param "__cudaparmf2__Z12path_calc_b1PfS_S_" from 0x8 to 0x10
GPGPU-Sim PTX: allocating stack frame region for .param "__cudaparmf3__Z12path_calc_b1PfS_S_" from 0x10 to 0x18
GPGPU-Sim PTX: allocating stack frame region for .param "__cudaparmf1__Z12path_calc_b2PfS_S_" from 0x0 to 0x8
GPGPU-Sim PTX: allocating stack frame region for .param "__cudaparmf2__Z12path_calc_b2PfS_S_" from 0x8 to 0x10
GPGPU-Sim PTX: allocating stack frame region for .param "__cudaparmf3__Z12path_calc_b2PfS_S_" from 0x10 to 0x18
GPGPU-Sim PTX: allocating stack frame region for .param "__cudaretf__Z11portfolio_bPfS_" from 0x0 to 0x4
GPGPU-Sim PTX: allocating stack frame region for .param "__cudaparmf1__Z11portfolio_bPfS_" from 0x4 to 0xc
GPGPU-Sim PTX: allocating stack frame region for .param "__cudaparmf2__Z11portfolio_bPfS_" from 0xc to 0x14
GPGPU-Sim PTX: allocating stack frame region for .param "__cudaretf__Z9portfolioPf" from 0x0 to 0x4
GPGPU-Sim PTX: allocating stack frame region for .param "__cudaparmf1__Z9portfolioPf" from 0x4 to 0xc
GPGPU-Sim PTX: allocating constant region for "N" from 0x100 to 0x104 (global memory space) 1
GPGPU-Sim PTX: allocating constant region for "Nmat" from 0x104 to 0x108 (global memory space) 2
GPGPU-Sim PTX: allocating constant region for "delta" from 0x108 to 0x10c (global memory space) 3
GPGPU-Sim PTX: allocating constant region for "lambda" from 0x180 to 0x2c0 (global memory space) 4
GPGPU-Sim PTX: instruction assembly for function '_Z9path_calcPfS_'...   done.
GPGPU-Sim PTX: finding reconvergence points for '_Z9path_calcPfS_'...
GPGPU-Sim PTX: Finding dominators for '_Z9path_calcPfS_'...
GPGPU-Sim PTX: Finding immediate dominators for '_Z9path_calcPfS_'...
GPGPU-Sim PTX: Finding postdominators for '_Z9path_calcPfS_'...
GPGPU-Sim PTX: Finding immediate postdominators for '_Z9path_calcPfS_'...
GPGPU-Sim PTX: pre-decoding instructions for '_Z9path_calcPfS_'...
GPGPU-Sim PTX: reconvergence points for _Z9path_calcPfS_...
GPGPU-Sim PTX:  1 (potential) branch divergence @  PC=0x038 (_1.ptx:81) @%p1 bra $Lt_0_2306;
GPGPU-Sim PTX:    immediate post dominator      @  PC=0x218 (_1.ptx:153) ret;
GPGPU-Sim PTX:  2 (potential) branch divergence @  PC=0x0a8 (_1.ptx:99) @%p2 bra $Lt_0_3074;
GPGPU-Sim PTX:    immediate post dominator      @  PC=0x1f8 (_1.ptx:147) mov.s32 %r5, %r7;
GPGPU-Sim PTX:  3 (potential) branch divergence @  PC=0x1f0 (_1.ptx:145) @%p3 bra $Lt_0_3586;
GPGPU-Sim PTX:    immediate post dominator      @  PC=0x1f8 (_1.ptx:147) mov.s32 %r5, %r7;
GPGPU-Sim PTX:  4 (potential) branch divergence @  PC=0x210 (_1.ptx:150) @%p4 bra $Lt_0_2818;
GPGPU-Sim PTX:    immediate post dominator      @  PC=0x218 (_1.ptx:153) ret;
GPGPU-Sim PTX: ... end of reconvergence points for _Z9path_calcPfS_
GPGPU-Sim PTX: ... done pre-decoding instructions for '_Z9path_calcPfS_'.
GPGPU-Sim PTX: instruction assembly for function '_Z12path_calc_b1PfS_S_'...   done.
GPGPU-Sim PTX: finding reconvergence points for '_Z12path_calc_b1PfS_S_'...
GPGPU-Sim PTX: Finding dominators for '_Z12path_calc_b1PfS_S_'...
GPGPU-Sim PTX: Finding immediate dominators for '_Z12path_calc_b1PfS_S_'...
GPGPU-Sim PTX: Finding postdominators for '_Z12path_calc_b1PfS_S_'...
GPGPU-Sim PTX: Finding immediate postdominators for '_Z12path_calc_b1PfS_S_'...
GPGPU-Sim PTX: pre-decoding instructions for '_Z12path_calc_b1PfS_S_'...
GPGPU-Sim PTX: reconvergence points for _Z12path_calc_b1PfS_S_...
GPGPU-Sim PTX:  1 (potential) branch divergence @  PC=0x268 (_1.ptx:175) @%p1 bra $Lt_1_3330;
GPGPU-Sim PTX:    immediate post dominator      @  PC=0x2d0 (_1.ptx:192) ld.const.s32 %r6, [Nmat];
GPGPU-Sim PTX:  2 (potential) branch divergence @  PC=0x2c8 (_1.ptx:190) @%p2 bra $Lt_1_3842;
GPGPU-Sim PTX:    immediate post dominator      @  PC=0x2d0 (_1.ptx:192) ld.const.s32 %r6, [Nmat];
GPGPU-Sim PTX:  3 (potential) branch divergence @  PC=0x2e8 (_1.ptx:195) @%p3 bra $Lt_1_4354;
GPGPU-Sim PTX:    immediate post dominator      @  PC=0x4f8 (_1.ptx:274) ret;
GPGPU-Sim PTX:  4 (potential) branch divergence @  PC=0x350 (_1.ptx:212) @%p4 bra $Lt_1_5122;
GPGPU-Sim PTX:    immediate post dominator      @  PC=0x4d8 (_1.ptx:268) mov.s32 %r9, %r11;
GPGPU-Sim PTX:  5 (potential) branch divergence @  PC=0x4d0 (_1.ptx:266) @%p5 bra $Lt_1_5634;
GPGPU-Sim PTX:    immediate post dominator      @  PC=0x4d8 (_1.ptx:268) mov.s32 %r9, %r11;
GPGPU-Sim PTX:  6 (potential) branch divergence @  PC=0x4f0 (_1.ptx:271) @%p6 bra $Lt_1_4866;
GPGPU-Sim PTX:    immediate post dominator      @  PC=0x4f8 (_1.ptx:274) ret;
GPGPU-Sim PTX: ... end of reconvergence points for _Z12path_calc_b1PfS_S_
GPGPU-Sim PTX: ... done pre-decoding instructions for '_Z12path_calc_b1PfS_S_'.
GPGPU-Sim PTX: instruction assembly for function '_Z12path_calc_b2PfS_S_'...   done.
GPGPU-Sim PTX: finding reconvergence points for '_Z12path_calc_b2PfS_S_'...
GPGPU-Sim PTX: Finding dominators for '_Z12path_calc_b2PfS_S_'...
GPGPU-Sim PTX: Finding immediate dominators for '_Z12path_calc_b2PfS_S_'...
GPGPU-Sim PTX: Finding postdominators for '_Z12path_calc_b2PfS_S_'...
GPGPU-Sim PTX: Finding immediate postdominators for '_Z12path_calc_b2PfS_S_'...
GPGPU-Sim PTX: pre-decoding instructions for '_Z12path_calc_b2PfS_S_'...
GPGPU-Sim PTX: reconvergence points for _Z12path_calc_b2PfS_S_...
GPGPU-Sim PTX:  1 (potential) branch divergence @  PC=0x548 (_1.ptx:297) @%p1 bra $Lt_2_2306;
GPGPU-Sim PTX:    immediate post dominator      @  PC=0x730 (_1.ptx:368) ret;
GPGPU-Sim PTX:  2 (potential) branch divergence @  PC=0x580 (_1.ptx:306) @%p2 bra $Lt_2_3074;
GPGPU-Sim PTX:    immediate post dominator      @  PC=0x710 (_1.ptx:362) sub.s32 %r3, %r3, 1;
GPGPU-Sim PTX:  3 (potential) branch divergence @  PC=0x708 (_1.ptx:360) @%p3 bra $Lt_2_3586;
GPGPU-Sim PTX:    immediate post dominator      @  PC=0x710 (_1.ptx:362) sub.s32 %r3, %r3, 1;
GPGPU-Sim PTX:  4 (potential) branch divergence @  PC=0x728 (_1.ptx:365) @%p4 bra $Lt_2_2818;
GPGPU-Sim PTX:    immediate post dominator      @  PC=0x730 (_1.ptx:368) ret;
GPGPU-Sim PTX: ... end of reconvergence points for _Z12path_calc_b2PfS_S_
GPGPU-Sim PTX: ... done pre-decoding instructions for '_Z12path_calc_b2PfS_S_'.
GPGPU-Sim PTX: allocating constant region for "Nopt" from 0x2c0 to 0x2c4 (global memory space) 5
GPGPU-Sim PTX: allocating constant region for "maturities" from 0x300 to 0x33c (global memory space) 6
GPGPU-Sim PTX: allocating constant region for "swaprates" from 0x380 to 0x3bc (global memory space) 7
GPGPU-Sim PTX: allocating stack frame region for .local "__cuda___cuda_local_var_34164_9_non_const_B_16440" from 0x80 to 0x120
GPGPU-Sim PTX: allocating stack frame region for .local "__cuda___cuda_local_var_34164_16_non_const_S_176600" from 0x180 to 0x220
GPGPU-Sim PTX: allocating stack frame region for .local "__cuda___cuda_local_var_34164_23_non_const_B_b_336760" from 0x280 to 0x320
GPGPU-Sim PTX: allocating stack frame region for .local "__cuda___cuda_local_var_34164_32_non_const_S_b_496920" from 0x380 to 0x420
GPGPU-Sim PTX: instruction assembly for function '_Z11portfolio_bPfS_'...   done.
GPGPU-Sim PTX: finding reconvergence points for '_Z11portfolio_bPfS_'...
GPGPU-Sim PTX: Finding dominators for '_Z11portfolio_bPfS_'...
GPGPU-Sim PTX: Finding immediate dominators for '_Z11portfolio_bPfS_'...
GPGPU-Sim PTX: Finding postdominators for '_Z11portfolio_bPfS_'...
GPGPU-Sim PTX: Finding immediate postdominators for '_Z11portfolio_bPfS_'...
GPGPU-Sim PTX: pre-decoding instructions for '_Z11portfolio_bPfS_'...
GPGPU-Sim PTX: reconvergence points for _Z11portfolio_bPfS_...
GPGPU-Sim PTX:  1 (potential) branch divergence @  PC=0x780 (_1.ptx:397) @!%p1 bra $Lt_3_8962;
GPGPU-Sim PTX:    immediate post dominator      @  PC=0x868 (_1.ptx:433) @!%p1 bra $Lt_3_9986;
GPGPU-Sim PTX:  2 (potential) branch divergence @  PC=0x860 (_1.ptx:431) @%p2 bra $Lt_3_9474;
GPGPU-Sim PTX:    immediate post dominator      @  PC=0x868 (_1.ptx:433) @!%p1 bra $Lt_3_9986;
GPGPU-Sim PTX:  3 (potential) branch divergence @  PC=0x868 (_1.ptx:433) @!%p1 bra $Lt_3_9986;
GPGPU-Sim PTX:    immediate post dominator      @  PC=0x8e0 (_1.ptx:453) ld.const.s32 %r11, [Nopt];
GPGPU-Sim PTX:  4 (potential) branch divergence @  PC=0x8d8 (_1.ptx:451) @%p3 bra $Lt_3_10498;
GPGPU-Sim PTX:    immediate post dominator      @  PC=0x8e0 (_1.ptx:453) ld.const.s32 %r11, [Nopt];
GPGPU-Sim PTX:  5 (potential) branch divergence @  PC=0x8f8 (_1.ptx:456) @%p4 bra $Lt_3_17666;
GPGPU-Sim PTX:    immediate post dominator      @  PC=0xa80 (_1.ptx:515) sub.s32 %r17, %r3, 1;
GPGPU-Sim PTX:  6 (potential) branch divergence @  PC=0x9c8 (_1.ptx:485) @!%p5 bra $Lt_3_11778;
GPGPU-Sim PTX:    immediate post dominator      @  PC=0xa30 (_1.ptx:502) add.s32 %r14, %r14, 1;
GPGPU-Sim PTX:  7 (potential) branch divergence @  PC=0xa50 (_1.ptx:506) @%p6 bra $Lt_3_11522;
GPGPU-Sim PTX:    immediate post dominator      @  PC=0xa58 (_1.ptx:507) bra.uni $Lt_3_11010;
GPGPU-Sim PTX:  8 (potential) branch divergence @  PC=0xa58 (_1.ptx:507) bra.uni $Lt_3_11010;
GPGPU-Sim PTX:    immediate post dominator      @  PC=0xa80 (_1.ptx:515) sub.s32 %r17, %r3, 1;
GPGPU-Sim PTX:  9 (potential) branch divergence @  PC=0xa98 (_1.ptx:518) @%p7 bra $Lt_3_12546;
GPGPU-Sim PTX:    immediate post dominator      @  PC=0xc60 (_1.ptx:583) mov.s32 %r22, 0;
GPGPU-Sim PTX: 10 (potential) branch divergence @  PC=0xba0 (_1.ptx:555) @%p8 bra $Lt_3_13314;
GPGPU-Sim PTX:    immediate post dominator      @  PC=0xc20 (_1.ptx:574) sub.s32 %r6, %r6, 1;
GPGPU-Sim PTX: 11 (potential) branch divergence @  PC=0xc58 (_1.ptx:581) @%p9 bra $Lt_3_13058;
GPGPU-Sim PTX:    immediate post dominator      @  PC=0xc60 (_1.ptx:583) mov.s32 %r22, 0;
GPGPU-Sim PTX: 12 (potential) branch divergence @  PC=0xc70 (_1.ptx:585) @!%p10 bra $Lt_3_18178;
GPGPU-Sim PTX:    immediate post dominator      @  PC=0xd18 (_1.ptx:612) mul.f32 %f10, %f10, %f3;
GPGPU-Sim PTX: 13 (potential) branch divergence @  PC=0xd00 (_1.ptx:606) @%p11 bra $Lt_3_14594;
GPGPU-Sim PTX:    immediate post dominator      @  PC=0xd08 (_1.ptx:607) bra.uni $Lt_3_14082;
GPGPU-Sim PTX: 14 (potential) branch divergence @  PC=0xd08 (_1.ptx:607) bra.uni $Lt_3_14082;
GPGPU-Sim PTX:    immediate post dominator      @  PC=0xd18 (_1.ptx:612) mul.f32 %f10, %f10, %f3;
GPGPU-Sim PTX: 15 (potential) branch divergence @  PC=0xd20 (_1.ptx:613) @!%p10 bra $Lt_3_15106;
GPGPU-Sim PTX:    immediate post dominator      @  PC=0xdd8 (_1.ptx:641) mov.s32 %r14, %r1;
GPGPU-Sim PTX: 16 (potential) branch divergence @  PC=0xdd0 (_1.ptx:638) @%p12 bra $Lt_3_15618;
GPGPU-Sim PTX:    immediate post dominator      @  PC=0xdd8 (_1.ptx:641) mov.s32 %r14, %r1;
GPGPU-Sim PTX: 17 (potential) branch divergence @  PC=0xde8 (_1.ptx:643) @%p13 bra $Lt_3_16130;
GPGPU-Sim PTX:    immediate post dominator      @  PC=0xe50 (_1.ptx:661) mov.f32 %f54, %f10;
GPGPU-Sim PTX: 18 (potential) branch divergence @  PC=0xe48 (_1.ptx:658) @%p14 bra $Lt_3_16642;
GPGPU-Sim PTX:    immediate post dominator      @  PC=0xe50 (_1.ptx:661) mov.f32 %f54, %f10;
GPGPU-Sim PTX: ... end of reconvergence points for _Z11portfolio_bPfS_
GPGPU-Sim PTX: ... done pre-decoding instructions for '_Z11portfolio_bPfS_'.
GPGPU-Sim PTX: allocating stack frame region for .local "__cuda___cuda_local_var_34227_27_non_const_B_01080" from 0x80 to 0x120
GPGPU-Sim PTX: allocating stack frame region for .local "__cuda___cuda_local_var_34227_34_non_const_S_1601240" from 0x180 to 0x220
GPGPU-Sim PTX: instruction assembly for function '_Z9portfolioPf'...   done.
GPGPU-Sim PTX: finding reconvergence points for '_Z9portfolioPf'...
GPGPU-Sim PTX: Finding dominators for '_Z9portfolioPf'...
GPGPU-Sim PTX: Finding immediate dominators for '_Z9portfolioPf'...
GPGPU-Sim PTX: Finding postdominators for '_Z9portfolioPf'...
GPGPU-Sim PTX: Finding immediate postdominators for '_Z9portfolioPf'...
GPGPU-Sim PTX: pre-decoding instructions for '_Z9portfolioPf'...
GPGPU-Sim PTX: reconvergence points for _Z9portfolioPf...
GPGPU-Sim PTX:  1 (potential) branch divergence @  PC=0xe90 (_1.ptx:684) @%p1 bra $Lt_4_4098;
GPGPU-Sim PTX:    immediate post dominator      @  PC=0xf90 (_1.ptx:723) cvta.local.u64 %rd3, __cuda___cuda_local_var_34227_27_non_const_B_01080;
GPGPU-Sim PTX:  2 (potential) branch divergence @  PC=0xf88 (_1.ptx:721) @%p2 bra $Lt_4_4610;
GPGPU-Sim PTX:    immediate post dominator      @  PC=0xf90 (_1.ptx:723) cvta.local.u64 %rd3, __cuda___cuda_local_var_34227_27_non_const_B_01080;
GPGPU-Sim PTX:  3 (potential) branch divergence @  PC=0xfb8 (_1.ptx:728) @%p3 bra $Lt_4_7426;
GPGPU-Sim PTX:    immediate post dominator      @  PC=0x10d0 (_1.ptx:769) mov.u32 %r13, 0;
GPGPU-Sim PTX:  4 (potential) branch divergence @  PC=0x10b8 (_1.ptx:764) @%p5 bra $Lt_4_5634;
GPGPU-Sim PTX:    immediate post dominator      @  PC=0x10c0 (_1.ptx:765) bra.uni $Lt_4_5122;
GPGPU-Sim PTX:  5 (potential) branch divergence @  PC=0x10c0 (_1.ptx:765) bra.uni $Lt_4_5122;
GPGPU-Sim PTX:    immediate post dominator      @  PC=0x10d0 (_1.ptx:769) mov.u32 %r13, 0;
GPGPU-Sim PTX:  6 (potential) branch divergence @  PC=0x10e0 (_1.ptx:771) @%p6 bra $Lt_4_7682;
GPGPU-Sim PTX:    immediate post dominator      @  PC=0x1188 (_1.ptx:798) mul.f32 %f16, %f6, %f3;
GPGPU-Sim PTX:  7 (potential) branch divergence @  PC=0x1170 (_1.ptx:792) @%p7 bra $Lt_4_6658;
GPGPU-Sim PTX:    immediate post dominator      @  PC=0x1178 (_1.ptx:793) bra.uni $Lt_4_6146;
GPGPU-Sim PTX:  8 (potential) branch divergence @  PC=0x1178 (_1.ptx:793) bra.uni $Lt_4_6146;
GPGPU-Sim PTX:    immediate post dominator      @  PC=0x1188 (_1.ptx:798) mul.f32 %f16, %f6, %f3;
GPGPU-Sim PTX: ... end of reconvergence points for _Z9portfolioPf
GPGPU-Sim PTX: ... done pre-decoding instructions for '_Z9portfolioPf'.
GPGPU-Sim PTX: allocating stack frame region for .local "__cuda___cuda_local_var_34164_32_non_const_S_b_161416" from 0x0 to 0xa0
GPGPU-Sim PTX: allocating stack frame region for .local "__cuda___cuda_local_var_34164_16_non_const_S_1761576" from 0x100 to 0x1a0
GPGPU-Sim PTX: allocating stack frame region for .local "__cuda___cuda_local_var_34265_16_non_const_L2_3361736" from 0x200 to 0x3540
GPGPU-Sim PTX: allocating stack frame region for .local "__cuda___cuda_local_var_34164_23_non_const_B_b_1345614856" from 0x3580 to 0x3620
GPGPU-Sim PTX: allocating stack frame region for .local "__cuda___cuda_local_var_34164_9_non_const_B_1361615016" from 0x3680 to 0x3720
GPGPU-Sim PTX: allocating stack frame region for .local "__cuda___cuda_local_var_34265_26_non_const_z_1377615176" from 0x3780 to 0x38c0
GPGPU-Sim PTX: allocating stack frame region for .local "__cuda___cuda_local_var_34265_9_non_const_L_1409615496" from 0x3900 to 0x3a40
GPGPU-Sim PTX: instruction assembly for function '_Z28Pathcalc_Portfolio_KernelGPUPfS_'...   done.
GPGPU-Sim PTX: finding reconvergence points for '_Z28Pathcalc_Portfolio_KernelGPUPfS_'...
GPGPU-Sim PTX: Finding dominators for '_Z28Pathcalc_Portfolio_KernelGPUPfS_'...
GPGPU-Sim PTX: Finding immediate dominators for '_Z28Pathcalc_Portfolio_KernelGPUPfS_'...
GPGPU-Sim PTX: Finding postdominators for '_Z28Pathcalc_Portfolio_KernelGPUPfS_'...
GPGPU-Sim PTX: Finding immediate postdominators for '_Z28Pathcalc_Portfolio_KernelGPUPfS_'...
GPGPU-Sim PTX: pre-decoding instructions for '_Z28Pathcalc_Portfolio_KernelGPUPfS_'...
GPGPU-Sim PTX: reconvergence points for _Z28Pathcalc_Portfolio_KernelGPUPfS_...
GPGPU-Sim PTX:  1 (potential) branch divergence @  PC=0x11e0 (_1.ptx:831) @%p1 bra $Lt_5_16130;
GPGPU-Sim PTX:    immediate post dominator      @  PC=0x1e48 (_1.ptx:1310) exit;
GPGPU-Sim PTX:  2 (potential) branch divergence @  PC=0x1320 (_1.ptx:873) @!%p2 bra $Lt_5_17922;
GPGPU-Sim PTX:    immediate post dominator      @  PC=0x1400 (_1.ptx:911) @!%p3 bra $Lt_5_18946;
GPGPU-Sim PTX:  3 (potential) branch divergence @  PC=0x1390 (_1.ptx:891) @%p9 bra $Lt_5_17410;
GPGPU-Sim PTX:    immediate post dominator      @  PC=0x1398 (_1.ptx:894) @!%p2 bra $Lt_5_17922;
GPGPU-Sim PTX:  4 (potential) branch divergence @  PC=0x1398 (_1.ptx:894) @!%p2 bra $Lt_5_17922;
GPGPU-Sim PTX:    immediate post dominator      @  PC=0x1400 (_1.ptx:911) @!%p3 bra $Lt_5_18946;
GPGPU-Sim PTX:  5 (potential) branch divergence @  PC=0x13f8 (_1.ptx:909) @%p10 bra $Lt_5_18434;
GPGPU-Sim PTX:    immediate post dominator      @  PC=0x1400 (_1.ptx:911) @!%p3 bra $Lt_5_18946;
GPGPU-Sim PTX:  6 (potential) branch divergence @  PC=0x1400 (_1.ptx:911) @!%p3 bra $Lt_5_18946;
GPGPU-Sim PTX:    immediate post dominator      @  PC=0x1610 (_1.ptx:989) @!%p6 bra $Lt_5_22018;
GPGPU-Sim PTX:  7 (potential) branch divergence @  PC=0x1438 (_1.ptx:921) @%p11 bra $Lt_5_19714;
GPGPU-Sim PTX:    immediate post dominator      @  PC=0x15f8 (_1.ptx:984) mov.s32 %r29, %r31;
GPGPU-Sim PTX:  8 (potential) branch divergence @  PC=0x15f0 (_1.ptx:982) @%p12 bra $Lt_5_20226;
GPGPU-Sim PTX:    immediate post dominator      @  PC=0x15f8 (_1.ptx:984) mov.s32 %r29, %r31;
GPGPU-Sim PTX:  9 (potential) branch divergence @  PC=0x1608 (_1.ptx:986) @%p13 bra $Lt_5_19458;
GPGPU-Sim PTX:    immediate post dominator      @  PC=0x1610 (_1.ptx:989) @!%p6 bra $Lt_5_22018;
GPGPU-Sim PTX: 10 (potential) branch divergence @  PC=0x1610 (_1.ptx:989) @!%p6 bra $Lt_5_22018;
GPGPU-Sim PTX:    immediate post dominator      @  PC=0x1770 (_1.ptx:1045) @!%p4 bra $Lt_5_33282;
GPGPU-Sim PTX: 11 (potential) branch divergence @  PC=0x16f0 (_1.ptx:1023) @%p14 bra $Lt_5_21506;
GPGPU-Sim PTX:    immediate post dominator      @  PC=0x16f8 (_1.ptx:1025) @!%p6 bra $Lt_5_22018;
GPGPU-Sim PTX: 12 (potential) branch divergence @  PC=0x16f8 (_1.ptx:1025) @!%p6 bra $Lt_5_22018;
GPGPU-Sim PTX:    immediate post dominator      @  PC=0x1770 (_1.ptx:1045) @!%p4 bra $Lt_5_33282;
GPGPU-Sim PTX: 13 (potential) branch divergence @  PC=0x1768 (_1.ptx:1043) @%p15 bra $Lt_5_22530;
GPGPU-Sim PTX:    immediate post dominator      @  PC=0x1770 (_1.ptx:1045) @!%p4 bra $Lt_5_33282;
GPGPU-Sim PTX: 14 (potential) branch divergence @  PC=0x1770 (_1.ptx:1045) @!%p4 bra $Lt_5_33282;
GPGPU-Sim PTX:    immediate post dominator      @  PC=0x18c0 (_1.ptx:1096) @!%p8 bra $Lt_5_24578;
GPGPU-Sim PTX: 15 (potential) branch divergence @  PC=0x1820 (_1.ptx:1070) @!%p16 bra $Lt_5_23810;
GPGPU-Sim PTX:    immediate post dominator      @  PC=0x1888 (_1.ptx:1087) add.s32 %r46, %r46, 1;
GPGPU-Sim PTX: 16 (potential) branch divergence @  PC=0x18a8 (_1.ptx:1091) @%p17 bra $Lt_5_23554;
GPGPU-Sim PTX:    immediate post dominator      @  PC=0x18b0 (_1.ptx:1092) bra.uni $Lt_5_23042;
GPGPU-Sim PTX: 17 (potential) branch divergence @  PC=0x18b0 (_1.ptx:1092) bra.uni $Lt_5_23042;
GPGPU-Sim PTX:    immediate post dominator      @  PC=0x18c0 (_1.ptx:1096) @!%p8 bra $Lt_5_24578;
GPGPU-Sim PTX: 18 (potential) branch divergence @  PC=0x18c0 (_1.ptx:1096) @!%p8 bra $Lt_5_24578;
GPGPU-Sim PTX:    immediate post dominator      @  PC=0x1a58 (_1.ptx:1155) @!%p3 bra $Lt_5_33794;
GPGPU-Sim PTX: 19 (potential) branch divergence @  PC=0x19b8 (_1.ptx:1131) @%p18 bra $Lt_5_25346;
GPGPU-Sim PTX:    immediate post dominator      @  PC=0x1a20 (_1.ptx:1147) sub.s32 %r40, %r40, 1;
GPGPU-Sim PTX: 20 (potential) branch divergence @  PC=0x1a50 (_1.ptx:1153) @%p19 bra $Lt_5_25090;
GPGPU-Sim PTX:    immediate post dominator      @  PC=0x1a58 (_1.ptx:1155) @!%p3 bra $Lt_5_33794;
GPGPU-Sim PTX: 21 (potential) branch divergence @  PC=0x1a58 (_1.ptx:1155) @!%p3 bra $Lt_5_33794;
GPGPU-Sim PTX:    immediate post dominator      @  PC=0x1b00 (_1.ptx:1182) mul.f32 %f30, %f30, %f24;
GPGPU-Sim PTX: 22 (potential) branch divergence @  PC=0x1ae8 (_1.ptx:1176) @%p20 bra $Lt_5_26626;
GPGPU-Sim PTX:    immediate post dominator      @  PC=0x1af0 (_1.ptx:1177) bra.uni $Lt_5_26114;
GPGPU-Sim PTX: 23 (potential) branch divergence @  PC=0x1af0 (_1.ptx:1177) bra.uni $Lt_5_26114;
GPGPU-Sim PTX:    immediate post dominator      @  PC=0x1b00 (_1.ptx:1182) mul.f32 %f30, %f30, %f24;
GPGPU-Sim PTX: 24 (potential) branch divergence @  PC=0x1b08 (_1.ptx:1183) @!%p3 bra $Lt_5_27138;
GPGPU-Sim PTX:    immediate post dominator      @  PC=0x1bb0 (_1.ptx:1209) mov.s32 %r46, %r10;
GPGPU-Sim PTX: 25 (potential) branch divergence @  PC=0x1ba8 (_1.ptx:1206) @%p21 bra $Lt_5_27650;
GPGPU-Sim PTX:    immediate post dominator      @  PC=0x1bb0 (_1.ptx:1209) mov.s32 %r46, %r10;
GPGPU-Sim PTX: 26 (potential) branch divergence @  PC=0x1bb8 (_1.ptx:1210) @!%p5 bra $Lt_5_28162;
GPGPU-Sim PTX:    immediate post dominator      @  PC=0x1c20 (_1.ptx:1228) st.global.f32 [%rd5+0], %f30;
GPGPU-Sim PTX: 27 (potential) branch divergence @  PC=0x1c18 (_1.ptx:1225) @%p22 bra $Lt_5_28674;
GPGPU-Sim PTX:    immediate post dominator      @  PC=0x1c20 (_1.ptx:1228) st.global.f32 [%rd5+0], %f30;
GPGPU-Sim PTX: 28 (potential) branch divergence @  PC=0x1c30 (_1.ptx:1231) @!%p7 bra $Lt_5_29186;
GPGPU-Sim PTX:    immediate post dominator      @  PC=0x1e08 (_1.ptx:1300) ld.local.f32 %f85, [__cuda___cuda_local_var_34265_9_non_const_L_1409615496+316];
GPGPU-Sim PTX: 29 (potential) branch divergence @  PC=0x1c58 (_1.ptx:1238) @%p23 bra $Lt_5_29954;
GPGPU-Sim PTX:    immediate post dominator      @  PC=0x1de8 (_1.ptx:1294) sub.s32 %r57, %r57, 1;
GPGPU-Sim PTX: 30 (potential) branch divergence @  PC=0x1de0 (_1.ptx:1292) @%p24 bra $Lt_5_30466;
GPGPU-Sim PTX:    immediate post dominator      @  PC=0x1de8 (_1.ptx:1294) sub.s32 %r57, %r57, 1;
GPGPU-Sim PTX: 31 (potential) branch divergence @  PC=0x1e00 (_1.ptx:1297) @%p25 bra $Lt_5_29698;
GPGPU-Sim PTX:    immediate post dominator      @  PC=0x1e08 (_1.ptx:1300) ld.local.f32 %f85, [__cuda___cuda_local_var_34265_9_non_const_L_1409615496+316];
GPGPU-Sim PTX: 32 (potential) branch divergence @  PC=0x1e40 (_1.ptx:1307) @%p26 bra $Lt_5_16642;
GPGPU-Sim PTX:    immediate post dominator      @  PC=0x1e48 (_1.ptx:1310) exit;
GPGPU-Sim PTX: ... end of reconvergence points for _Z28Pathcalc_Portfolio_KernelGPUPfS_
GPGPU-Sim PTX: ... done pre-decoding instructions for '_Z28Pathcalc_Portfolio_KernelGPUPfS_'.
GPGPU-Sim PTX: allocating stack frame region for .local "__cuda___cuda_local_var_34227_27_non_const_B_1615824" from 0x0 to 0xa0
GPGPU-Sim PTX: allocating stack frame region for .local "__cuda___cuda_local_var_34291_9_non_const_L_17615984" from 0x100 to 0x240
GPGPU-Sim PTX: allocating stack frame region for .local "__cuda___cuda_local_var_34227_34_non_const_S_49616304" from 0x280 to 0x320
GPGPU-Sim PTX: allocating stack frame region for .local "__cuda___cuda_local_var_34291_16_non_const_z_65616464" from 0x380 to 0x4c0
GPGPU-Sim PTX: instruction assembly for function '_Z29Pathcalc_Portfolio_KernelGPU2Pf'...   done.
GPGPU-Sim PTX: finding reconvergence points for '_Z29Pathcalc_Portfolio_KernelGPU2Pf'...
GPGPU-Sim PTX: Finding dominators for '_Z29Pathcalc_Portfolio_KernelGPU2Pf'...
GPGPU-Sim PTX: Finding immediate dominators for '_Z29Pathcalc_Portfolio_KernelGPU2Pf'...
GPGPU-Sim PTX: Finding postdominators for '_Z29Pathcalc_Portfolio_KernelGPU2Pf'...
GPGPU-Sim PTX: Finding immediate postdominators for '_Z29Pathcalc_Portfolio_KernelGPU2Pf'...
GPGPU-Sim PTX: pre-decoding instructions for '_Z29Pathcalc_Portfolio_KernelGPU2Pf'...
GPGPU-Sim PTX: reconvergence points for _Z29Pathcalc_Portfolio_KernelGPU2Pf...
GPGPU-Sim PTX:  1 (potential) branch divergence @  PC=0x1e90 (_1.ptx:1337) @%p1 bra $Lt_6_8194;
GPGPU-Sim PTX:    immediate post dominator      @  PC=0x2498 (_1.ptx:1571) exit;
GPGPU-Sim PTX:  2 (potential) branch divergence @  PC=0x1f60 (_1.ptx:1365) @!%p2 bra $Lt_6_8962;
GPGPU-Sim PTX:    immediate post dominator      @  PC=0x1fd8 (_1.ptx:1386) @!%p3 bra $Lt_6_9986;
GPGPU-Sim PTX:  3 (potential) branch divergence @  PC=0x1fd0 (_1.ptx:1383) @%p6 bra $Lt_6_9474;
GPGPU-Sim PTX:    immediate post dominator      @  PC=0x1fd8 (_1.ptx:1386) @!%p3 bra $Lt_6_9986;
GPGPU-Sim PTX:  4 (potential) branch divergence @  PC=0x1fd8 (_1.ptx:1386) @!%p3 bra $Lt_6_9986;
GPGPU-Sim PTX:    immediate post dominator      @  PC=0x21b0 (_1.ptx:1456) @!%p4 bra $Lt_6_12034;
GPGPU-Sim PTX:  5 (potential) branch divergence @  PC=0x2010 (_1.ptx:1396) @%p7 bra $Lt_6_10754;
GPGPU-Sim PTX:    immediate post dominator      @  PC=0x2198 (_1.ptx:1451) mov.s32 %r20, %r22;
GPGPU-Sim PTX:  6 (potential) branch divergence @  PC=0x2190 (_1.ptx:1449) @%p8 bra $Lt_6_11266;
GPGPU-Sim PTX:    immediate post dominator      @  PC=0x2198 (_1.ptx:1451) mov.s32 %r20, %r22;
GPGPU-Sim PTX:  7 (potential) branch divergence @  PC=0x21a8 (_1.ptx:1453) @%p9 bra $Lt_6_10498;
GPGPU-Sim PTX:    immediate post dominator      @  PC=0x21b0 (_1.ptx:1456) @!%p4 bra $Lt_6_12034;
GPGPU-Sim PTX:  8 (potential) branch divergence @  PC=0x21b0 (_1.ptx:1456) @!%p4 bra $Lt_6_12034;
GPGPU-Sim PTX:    immediate post dominator      @  PC=0x22a0 (_1.ptx:1493) @!%p5 bra $Lt_6_16642;
GPGPU-Sim PTX:  9 (potential) branch divergence @  PC=0x2298 (_1.ptx:1491) @%p10 bra $Lt_6_12546;
GPGPU-Sim PTX:    immediate post dominator      @  PC=0x22a0 (_1.ptx:1493) @!%p5 bra $Lt_6_16642;
GPGPU-Sim PTX: 10 (potential) branch divergence @  PC=0x22a0 (_1.ptx:1493) @!%p5 bra $Lt_6_16642;
GPGPU-Sim PTX:    immediate post dominator      @  PC=0x23b8 (_1.ptx:1534) @!%p3 bra $Lt_6_16898;
GPGPU-Sim PTX: 11 (potential) branch divergence @  PC=0x23a0 (_1.ptx:1529) @%p12 bra $Lt_6_13570;
GPGPU-Sim PTX:    immediate post dominator      @  PC=0x23a8 (_1.ptx:1530) bra.uni $Lt_6_13058;
GPGPU-Sim PTX: 12 (potential) branch divergence @  PC=0x23a8 (_1.ptx:1530) bra.uni $Lt_6_13058;
GPGPU-Sim PTX:    immediate post dominator      @  PC=0x23b8 (_1.ptx:1534) @!%p3 bra $Lt_6_16898;
GPGPU-Sim PTX: 13 (potential) branch divergence @  PC=0x23b8 (_1.ptx:1534) @!%p3 bra $Lt_6_16898;
GPGPU-Sim PTX:    immediate post dominator      @  PC=0x2460 (_1.ptx:1561) mul.f32 %f25, %f25, %f22;
GPGPU-Sim PTX: 14 (potential) branch divergence @  PC=0x2448 (_1.ptx:1555) @%p13 bra $Lt_6_14594;
GPGPU-Sim PTX:    immediate post dominator      @  PC=0x2450 (_1.ptx:1556) bra.uni $Lt_6_14082;
GPGPU-Sim PTX: 15 (potential) branch divergence @  PC=0x2450 (_1.ptx:1556) bra.uni $Lt_6_14082;
GPGPU-Sim PTX:    immediate post dominator      @  PC=0x2460 (_1.ptx:1561) mul.f32 %f25, %f25, %f22;
GPGPU-Sim PTX: 16 (potential) branch divergence @  PC=0x2490 (_1.ptx:1568) @%p14 bra $Lt_6_8706;
GPGPU-Sim PTX:    immediate post dominator      @  PC=0x2498 (_1.ptx:1571) exit;
GPGPU-Sim PTX: ... end of reconvergence points for _Z29Pathcalc_Portfolio_KernelGPU2Pf
GPGPU-Sim PTX: ... done pre-decoding instructions for '_Z29Pathcalc_Portfolio_KernelGPU2Pf'.
GPGPU-Sim PTX: finished parsing EMBEDDED .ptx file _1.ptx
Adding _cuobjdump_2.ptx with cubin handle 1
GPGPU-Sim PTX: extracting embedded .ptx to temporary file "_ptx_ulzlFG"
Running: cat _ptx_ulzlFG | sed 's/.version 1.5/.version 1.4/' | sed 's/, texmode_independent//' | sed 's/\(\.extern \.const\[1\] .b8 \w\+\)\[\]/\1\[1\]/' | sed 's/const\[.\]/const\[0\]/g' > _ptx2_svC887
GPGPU-Sim PTX: generating ptxinfo using "$CUDA_INSTALL_PATH/bin/ptxas --gpu-name=sm_20 -v _ptx2_svC887 --output-file  /dev/null 2> _ptx_ulzlFGinfo"
GPGPU-Sim PTX: Kernel '_Z29Pathcalc_Portfolio_KernelGPU2Pf' : regs=33, lmem=4, smem=0, cmem=508
GPGPU-Sim PTX: Kernel '_Z28Pathcalc_Portfolio_KernelGPUPfS_' : regs=41, lmem=4, smem=0, cmem=516
GPGPU-Sim PTX: removing ptxinfo using "rm -f _ptx_ulzlFG _ptx2_svC887 _ptx_ulzlFGinfo"
GPGPU-Sim PTX: loading globals with explicit initializers... 
GPGPU-Sim PTX: finished loading globals (0 bytes total).
GPGPU-Sim PTX: loading constants with explicit initializers...  done.
GPGPU-Sim PTX: __cudaRegisterFunction _Z28Pathcalc_Portfolio_KernelGPUPfS_ : hostFun 0x0x403ba0, fat_cubin_handle = 1
GPGPU-Sim PTX: __cudaRegisterVar: hostVar = 0x62d448; deviceAddress = N; deviceName = N
GPGPU-Sim PTX: __cudaRegisterVar: Registering const memory space of 4 bytes
GPGPU-Sim PTX registering constant N (4 bytes) to name mapping
GPGPU-Sim PTX: __cudaRegisterVar: hostVar = 0x62d44c; deviceAddress = Nmat; deviceName = Nmat
GPGPU-Sim PTX: __cudaRegisterVar: Registering const memory space of 4 bytes
GPGPU-Sim PTX registering constant Nmat (4 bytes) to name mapping
GPGPU-Sim PTX: __cudaRegisterVar: hostVar = 0x62d450; deviceAddress = Nopt; deviceName = Nopt
GPGPU-Sim PTX: __cudaRegisterVar: Registering const memory space of 4 bytes
GPGPU-Sim PTX registering constant Nopt (4 bytes) to name mapping
GPGPU-Sim PTX: __cudaRegisterVar: hostVar = 0x62d460; deviceAddress = maturities; deviceName = maturities
GPGPU-Sim PTX: __cudaRegisterVar: Registering const memory space of 60 bytes
GPGPU-Sim PTX registering constant maturities (60 bytes) to name mapping
GPGPU-Sim PTX: __cudaRegisterVar: hostVar = 0x62d49c; deviceAddress = delta; deviceName = delta
GPGPU-Sim PTX: __cudaRegisterVar: Registering const memory space of 4 bytes
GPGPU-Sim PTX registering constant delta (4 bytes) to name mapping
GPGPU-Sim PTX: __cudaRegisterVar: hostVar = 0x62d4a0; deviceAddress = swaprates; deviceName = swaprates
GPGPU-Sim PTX: __cudaRegisterVar: Registering const memory space of 60 bytes
GPGPU-Sim PTX registering constant swaprates (60 bytes) to name mapping
GPGPU-Sim PTX: __cudaRegisterVar: hostVar = 0x62d4e0; deviceAddress = lambda; deviceName = lambda
GPGPU-Sim PTX: __cudaRegisterVar: Registering const memory space of 320 bytes
GPGPU-Sim PTX registering constant lambda (320 bytes) to name mapping
GPGPU-Sim PTX: cudaMemcpyToSymbol: symbol = 0x62d448
GPGPU-Sim PTX: starting gpgpu_ptx_sim_memcpy_symbol with hostVar 0x0x62d448
GPGPU-Sim PTX: gpgpu_ptx_sim_memcpy_symbol: Found PTX symbol w/ hostVar=0x62d448
GPGPU-Sim PTX: gpgpu_ptx_sim_memcpy_symbol: copying const memory 4 bytes  to  symbol N+0 @0x100 ...
GPGPU-Sim PTX: cudaMemcpyToSymbol: symbol = 0x62d44c
GPGPU-Sim PTX: starting gpgpu_ptx_sim_memcpy_symbol with hostVar 0x0x62d44c
GPGPU-Sim PTX: gpgpu_ptx_sim_memcpy_symbol: Found PTX symbol w/ hostVar=0x62d44c
GPGPU-Sim PTX: gpgpu_ptx_sim_memcpy_symbol: copying const memory 4 bytes  to  symbol Nmat+0 @0x104 ...
GPGPU-Sim PTX: cudaMemcpyToSymbol: symbol = 0x62d450
GPGPU-Sim PTX: starting gpgpu_ptx_sim_memcpy_symbol with hostVar 0x0x62d450
GPGPU-Sim PTX: gpgpu_ptx_sim_memcpy_symbol: Found PTX symbol w/ hostVar=0x62d450
GPGPU-Sim PTX: gpgpu_ptx_sim_memcpy_symbol: copying const memory 4 bytes  to  symbol Nopt+0 @0x2c0 ...
GPGPU-Sim PTX: cudaMemcpyToSymbol: symbol = 0x62d49c
GPGPU-Sim PTX: starting gpgpu_ptx_sim_memcpy_symbol with hostVar 0x0x62d49c
GPGPU-Sim PTX: gpgpu_ptx_sim_memcpy_symbol: Found PTX symbol w/ hostVar=0x62d49c
GPGPU-Sim PTX: gpgpu_ptx_sim_memcpy_symbol: copying const memory 4 bytes  to  symbol delta+0 @0x108 ...
GPGPU-Sim PTX: cudaMemcpyToSymbol: symbol = 0x62d460
GPGPU-Sim PTX: starting gpgpu_ptx_sim_memcpy_symbol with hostVar 0x0x62d460
GPGPU-Sim PTX: gpgpu_ptx_sim_memcpy_symbol: Found PTX symbol w/ hostVar=0x62d460
GPGPU-Sim PTX: gpgpu_ptx_sim_memcpy_symbol: copying const memory 60 bytes  to  symbol maturities+0 @0x300 ...
GPGPU-Sim PTX: cudaMemcpyToSymbol: symbol = 0x62d4a0
GPGPU-Sim PTX: starting gpgpu_ptx_sim_memcpy_symbol with hostVar 0x0x62d4a0
GPGPU-Sim PTX: gpgpu_ptx_sim_memcpy_symbol: Found PTX symbol w/ hostVar=0x62d4a0
GPGPU-Sim PTX: gpgpu_ptx_sim_memcpy_symbol: copying const memory 60 bytes  to  symbol swaprates+0 @0x380 ...
GPGPU-Sim PTX: cudaMemcpyToSymbol: symbol = 0x62d4e0
GPGPU-Sim PTX: starting gpgpu_ptx_sim_memcpy_symbol with hostVar 0x0x62d4e0
GPGPU-Sim PTX: gpgpu_ptx_sim_memcpy_symbol: Found PTX symbol w/ hostVar=0x62d4e0
GPGPU-Sim PTX: gpgpu_ptx_sim_memcpy_symbol: copying const memory 320 bytes  to  symbol lambda+0 @0x180 ...
GPGPU-Sim: synchronize waiting for inactive GPU simulation
GPGPU-Sim API: Stream Manager State
GPGPU-Sim: detected inactive GPU simulation thread

GPGPU-Sim PTX: cudaLaunch for 0x0x403b30 (mode=performance simulation) on stream 0
GPGPU-Sim PTX: pushing kernel '_Z29Pathcalc_Portfolio_KernelGPU2Pf' to stream 0, gridDim= (64,1,1) blockDim = (64,1,1) 
kernel '_Z29Pathcalc_Portfolio_KernelGPU2Pf' transfer to GPU hardware scheduler
GPGPU-Sim uArch: Shader 1 bind to kernel 1 '_Z29Pathcalc_Portfolio_KernelGPU2Pf'
GPGPU-Sim uArch: CTA/core = 3, limited by: regs
GPGPU-Sim uArch: core:  1, cta: 0 initialized @(1,0)
GPGPU-Sim uArch: Shader 2 bind to kernel 1 '_Z29Pathcalc_Portfolio_KernelGPU2Pf'
GPGPU-Sim uArch: core:  2, cta: 0 initialized @(1,0)
GPGPU-Sim uArch: Shader 3 bind to kernel 1 '_Z29Pathcalc_Portfolio_KernelGPU2Pf'
GPGPU-Sim uArch: core:  3, cta: 0 initialized @(1,0)
GPGPU-Sim uArch: Shader 4 bind to kernel 1 '_Z29Pathcalc_Portfolio_KernelGPU2Pf'
GPGPU-Sim uArch: core:  4, cta: 0 initialized @(1,0)
GPGPU-Sim uArch: Shader 5 bind to kernel 1 '_Z29Pathcalc_Portfolio_KernelGPU2Pf'
GPGPU-Sim uArch: core:  5, cta: 0 initialized @(1,0)
GPGPU-Sim uArch: Shader 6 bind to kernel 1 '_Z29Pathcalc_Portfolio_KernelGPU2Pf'
GPGPU-Sim uArch: core:  6, cta: 0 initialized @(1,0)
GPGPU-Sim uArch: Shader 7 bind to kernel 1 '_Z29Pathcalc_Portfolio_KernelGPU2Pf'
GPGPU-Sim uArch: core:  7, cta: 0 initialized @(1,0)
GPGPU-Sim uArch: Shader 8 bind to kernel 1 '_Z29Pathcalc_Portfolio_KernelGPU2Pf'
GPGPU-Sim uArch: core:  8, cta: 0 initialized @(1,0)
GPGPU-Sim uArch: Shader 9 bind to kernel 1 '_Z29Pathcalc_Portfolio_KernelGPU2Pf'
GPGPU-Sim uArch: core:  9, cta: 0 initialized @(1,0)
GPGPU-Sim uArch: Shader 10 bind to kernel 1 '_Z29Pathcalc_Portfolio_KernelGPU2Pf'
GPGPU-Sim uArch: core: 10, cta: 0 initialized @(1,0)
GPGPU-Sim uArch: Shader 11 bind to kernel 1 '_Z29Pathcalc_Portfolio_KernelGPU2Pf'
GPGPU-Sim uArch: core: 11, cta: 0 initialized @(1,0)
GPGPU-Sim uArch: Shader 12 bind to kernel 1 '_Z29Pathcalc_Portfolio_KernelGPU2Pf'
GPGPU-Sim uArch: core: 12, cta: 0 initialized @(1,0)
GPGPU-Sim uArch: Shader 13 bind to kernel 1 '_Z29Pathcalc_Portfolio_KernelGPU2Pf'
GPGPU-Sim uArch: core: 13, cta: 0 initialized @(1,0)
GPGPU-Sim uArch: Shader 14 bind to kernel 1 '_Z29Pathcalc_Portfolio_KernelGPU2Pf'
GPGPU-Sim uArch: core: 14, cta: 0 initialized @(1,0)
GPGPU-Sim uArch: Shader 0 bind to kernel 1 '_Z29Pathcalc_Portfolio_KernelGPU2Pf'
GPGPU-Sim uArch: core:  0, cta: 0 initialized @(1,0)
GPGPU-Sim uArch: core:  1, cta: 1 initialized @(2,0)
GPGPU-Sim uArch: core:  2, cta: 1 initialized @(2,0)
GPGPU-Sim uArch: core:  3, cta: 1 initialized @(2,0)
GPGPU-Sim uArch: core:  4, cta: 1 initialized @(2,0)
GPGPU-Sim uArch: core:  5, cta: 1 initialized @(2,0)
GPGPU-Sim uArch: core:  6, cta: 1 initialized @(2,0)
GPGPU-Sim uArch: core:  7, cta: 1 initialized @(2,0)
GPGPU-Sim uArch: core:  8, cta: 1 initialized @(2,0)
GPGPU-Sim uArch: core:  9, cta: 1 initialized @(2,0)
GPGPU-Sim uArch: core: 10, cta: 1 initialized @(2,0)
GPGPU-Sim uArch: core: 11, cta: 1 initialized @(2,0)
GPGPU-Sim uArch: core: 12, cta: 1 initialized @(2,0)
GPGPU-Sim uArch: core: 13, cta: 1 initialized @(2,0)
GPGPU-Sim uArch: core: 14, cta: 1 initialized @(2,0)
GPGPU-Sim uArch: core:  0, cta: 1 initialized @(2,0)
GPGPU-Sim uArch: core:  1, cta: 2 initialized @(3,0)
GPGPU-Sim uArch: core:  2, cta: 2 initialized @(3,0)
GPGPU-Sim uArch: core:  3, cta: 2 initialized @(3,0)
GPGPU-Sim uArch: core:  4, cta: 2 initialized @(3,0)
GPGPU-Sim uArch: core:  5, cta: 2 initialized @(3,0)
GPGPU-Sim uArch: core:  6, cta: 2 initialized @(3,0)
GPGPU-Sim uArch: core:  7, cta: 2 initialized @(3,0)
GPGPU-Sim uArch: core:  8, cta: 2 initialized @(3,0)
GPGPU-Sim uArch: core:  9, cta: 2 initialized @(3,0)
GPGPU-Sim uArch: core: 10, cta: 2 initialized @(3,0)
GPGPU-Sim uArch: core: 11, cta: 2 initialized @(3,0)
GPGPU-Sim uArch: core: 12, cta: 2 initialized @(3,0)
GPGPU-Sim uArch: core: 13, cta: 2 initialized @(3,0)
GPGPU-Sim uArch: core: 14, cta: 2 initialized @(3,0)
GPGPU-Sim uArch: core:  0, cta: 2 initialized @(3,0)
GPGPU-Sim uArch: cycles simulated: 500  inst.: 17280 (ipc=34.6) sim_rate=17280 (inst/sec) elapsed = 0:0:00:01 / Wed May 13 00:25:27 2015
GPGPU-Sim uArch: cycles simulated: 1000  inst.: 46080 (ipc=46.1) sim_rate=23040 (inst/sec) elapsed = 0:0:00:02 / Wed May 13 00:25:28 2015
GPGPU-Sim PTX: 100000 instructions simulated : ctaid=(13,0,0) tid=(31,0,0)
GPGPU-Sim uArch: cycles simulated: 2000  inst.: 107264 (ipc=53.6) sim_rate=35754 (inst/sec) elapsed = 0:0:00:03 / Wed May 13 00:25:29 2015
GPGPU-Sim uArch: cycles simulated: 2500  inst.: 178816 (ipc=71.5) sim_rate=44704 (inst/sec) elapsed = 0:0:00:04 / Wed May 13 00:25:30 2015
GPGPU-Sim PTX: 200000 instructions simulated : ctaid=(33,0,0) tid=(63,0,0)
GPGPU-Sim uArch: cycles simulated: 3000  inst.: 194816 (ipc=64.9) sim_rate=38963 (inst/sec) elapsed = 0:0:00:05 / Wed May 13 00:25:31 2015
GPGPU-Sim uArch: cycles simulated: 3500  inst.: 209408 (ipc=59.8) sim_rate=34901 (inst/sec) elapsed = 0:0:00:06 / Wed May 13 00:25:32 2015
GPGPU-Sim uArch: cycles simulated: 4500  inst.: 238592 (ipc=53.0) sim_rate=34084 (inst/sec) elapsed = 0:0:00:07 / Wed May 13 00:25:33 2015
GPGPU-Sim uArch: cycles simulated: 5000  inst.: 256320 (ipc=51.3) sim_rate=32040 (inst/sec) elapsed = 0:0:00:08 / Wed May 13 00:25:34 2015
GPGPU-Sim PTX: 300000 instructions simulated : ctaid=(33,0,0) tid=(31,0,0)
GPGPU-Sim uArch: cycles simulated: 6000  inst.: 290432 (ipc=48.4) sim_rate=32270 (inst/sec) elapsed = 0:0:00:09 / Wed May 13 00:25:35 2015
GPGPU-Sim uArch: cycles simulated: 6500  inst.: 308864 (ipc=47.5) sim_rate=30886 (inst/sec) elapsed = 0:0:00:10 / Wed May 13 00:25:36 2015
GPGPU-Sim uArch: cycles simulated: 7000  inst.: 329152 (ipc=47.0) sim_rate=29922 (inst/sec) elapsed = 0:0:00:11 / Wed May 13 00:25:37 2015
GPGPU-Sim uArch: cycles simulated: 7500  inst.: 346496 (ipc=46.2) sim_rate=28874 (inst/sec) elapsed = 0:0:00:12 / Wed May 13 00:25:38 2015
GPGPU-Sim uArch: cycles simulated: 8500  inst.: 381952 (ipc=44.9) sim_rate=29380 (inst/sec) elapsed = 0:0:00:13 / Wed May 13 00:25:39 2015
GPGPU-Sim PTX: 400000 instructions simulated : ctaid=(4,0,0) tid=(63,0,0)
GPGPU-Sim uArch: cycles simulated: 9000  inst.: 399872 (ipc=44.4) sim_rate=28562 (inst/sec) elapsed = 0:0:00:14 / Wed May 13 00:25:40 2015
GPGPU-Sim uArch: cycles simulated: 9500  inst.: 415936 (ipc=43.8) sim_rate=27729 (inst/sec) elapsed = 0:0:00:15 / Wed May 13 00:25:41 2015
GPGPU-Sim uArch: cycles simulated: 10000  inst.: 433280 (ipc=43.3) sim_rate=27080 (inst/sec) elapsed = 0:0:00:16 / Wed May 13 00:25:42 2015
GPGPU-Sim uArch: cycles simulated: 11000  inst.: 468608 (ipc=42.6) sim_rate=27565 (inst/sec) elapsed = 0:0:00:17 / Wed May 13 00:25:43 2015
GPGPU-Sim uArch: cycles simulated: 11500  inst.: 486336 (ipc=42.3) sim_rate=27018 (inst/sec) elapsed = 0:0:00:18 / Wed May 13 00:25:44 2015
GPGPU-Sim PTX: 500000 instructions simulated : ctaid=(27,0,0) tid=(31,0,0)
GPGPU-Sim uArch: cycles simulated: 12000  inst.: 504384 (ipc=42.0) sim_rate=26546 (inst/sec) elapsed = 0:0:00:19 / Wed May 13 00:25:45 2015
GPGPU-Sim uArch: cycles simulated: 12500  inst.: 521280 (ipc=41.7) sim_rate=26064 (inst/sec) elapsed = 0:0:00:20 / Wed May 13 00:25:46 2015
GPGPU-Sim uArch: cycles simulated: 13500  inst.: 556608 (ipc=41.2) sim_rate=26505 (inst/sec) elapsed = 0:0:00:21 / Wed May 13 00:25:47 2015
GPGPU-Sim uArch: cycles simulated: 14000  inst.: 575488 (ipc=41.1) sim_rate=26158 (inst/sec) elapsed = 0:0:00:22 / Wed May 13 00:25:48 2015
GPGPU-Sim PTX: 600000 instructions simulated : ctaid=(30,0,0) tid=(63,0,0)
GPGPU-Sim uArch: cycles simulated: 14500  inst.: 594240 (ipc=41.0) sim_rate=25836 (inst/sec) elapsed = 0:0:00:23 / Wed May 13 00:25:49 2015
GPGPU-Sim uArch: cycles simulated: 15000  inst.: 612672 (ipc=40.8) sim_rate=25528 (inst/sec) elapsed = 0:0:00:24 / Wed May 13 00:25:50 2015
GPGPU-Sim uArch: cycles simulated: 16000  inst.: 648000 (ipc=40.5) sim_rate=25920 (inst/sec) elapsed = 0:0:00:25 / Wed May 13 00:25:51 2015
GPGPU-Sim uArch: cycles simulated: 16500  inst.: 664576 (ipc=40.3) sim_rate=25560 (inst/sec) elapsed = 0:0:00:26 / Wed May 13 00:25:52 2015
GPGPU-Sim uArch: cycles simulated: 17000  inst.: 680256 (ipc=40.0) sim_rate=25194 (inst/sec) elapsed = 0:0:00:27 / Wed May 13 00:25:53 2015
GPGPU-Sim PTX: 700000 instructions simulated : ctaid=(32,0,0) tid=(31,0,0)
GPGPU-Sim uArch: cycles simulated: 18000  inst.: 713920 (ipc=39.7) sim_rate=25497 (inst/sec) elapsed = 0:0:00:28 / Wed May 13 00:25:54 2015
GPGPU-Sim uArch: cycles simulated: 18500  inst.: 731136 (ipc=39.5) sim_rate=25211 (inst/sec) elapsed = 0:0:00:29 / Wed May 13 00:25:55 2015
GPGPU-Sim uArch: cycles simulated: 19000  inst.: 749120 (ipc=39.4) sim_rate=24970 (inst/sec) elapsed = 0:0:00:30 / Wed May 13 00:25:56 2015
GPGPU-Sim uArch: cycles simulated: 19500  inst.: 769280 (ipc=39.5) sim_rate=24815 (inst/sec) elapsed = 0:0:00:31 / Wed May 13 00:25:57 2015
GPGPU-Sim uArch: cycles simulated: 20000  inst.: 787712 (ipc=39.4) sim_rate=24616 (inst/sec) elapsed = 0:0:00:32 / Wed May 13 00:25:58 2015
GPGPU-Sim PTX: 800000 instructions simulated : ctaid=(4,0,0) tid=(63,0,0)
GPGPU-Sim uArch: cycles simulated: 20500  inst.: 806016 (ipc=39.3) sim_rate=24424 (inst/sec) elapsed = 0:0:00:33 / Wed May 13 00:25:59 2015
GPGPU-Sim uArch: cycles simulated: 21500  inst.: 834048 (ipc=38.8) sim_rate=24530 (inst/sec) elapsed = 0:0:00:34 / Wed May 13 00:26:00 2015
GPGPU-Sim uArch: cycles simulated: 22000  inst.: 858560 (ipc=39.0) sim_rate=24530 (inst/sec) elapsed = 0:0:00:35 / Wed May 13 00:26:01 2015
GPGPU-Sim uArch: cycles simulated: 22500  inst.: 879872 (ipc=39.1) sim_rate=24440 (inst/sec) elapsed = 0:0:00:36 / Wed May 13 00:26:02 2015
GPGPU-Sim PTX: 900000 instructions simulated : ctaid=(1,0,0) tid=(31,0,0)
GPGPU-Sim uArch: cycles simulated: 23500  inst.: 918464 (ipc=39.1) sim_rate=24823 (inst/sec) elapsed = 0:0:00:37 / Wed May 13 00:26:03 2015
GPGPU-Sim uArch: cycles simulated: 24000  inst.: 936832 (ipc=39.0) sim_rate=24653 (inst/sec) elapsed = 0:0:00:38 / Wed May 13 00:26:04 2015
GPGPU-Sim uArch: cycles simulated: 24500  inst.: 955264 (ipc=39.0) sim_rate=24493 (inst/sec) elapsed = 0:0:00:39 / Wed May 13 00:26:05 2015
GPGPU-Sim uArch: cycles simulated: 25000  inst.: 971776 (ipc=38.9) sim_rate=24294 (inst/sec) elapsed = 0:0:00:40 / Wed May 13 00:26:06 2015
GPGPU-Sim PTX: 1000000 instructions simulated : ctaid=(34,0,0) tid=(63,0,0)
GPGPU-Sim uArch: cycles simulated: 26000  inst.: 1014528 (ipc=39.0) sim_rate=24744 (inst/sec) elapsed = 0:0:00:41 / Wed May 13 00:26:07 2015
GPGPU-Sim uArch: cycles simulated: 26500  inst.: 1035904 (ipc=39.1) sim_rate=24664 (inst/sec) elapsed = 0:0:00:42 / Wed May 13 00:26:08 2015
GPGPU-Sim uArch: cycles simulated: 27000  inst.: 1057152 (ipc=39.2) sim_rate=24584 (inst/sec) elapsed = 0:0:00:43 / Wed May 13 00:26:09 2015
GPGPU-Sim uArch: cycles simulated: 27500  inst.: 1083712 (ipc=39.4) sim_rate=24629 (inst/sec) elapsed = 0:0:00:44 / Wed May 13 00:26:10 2015
GPGPU-Sim PTX: 1100000 instructions simulated : ctaid=(18,0,0) tid=(31,0,0)
GPGPU-Sim uArch: cycles simulated: 28000  inst.: 1110208 (ipc=39.7) sim_rate=24671 (inst/sec) elapsed = 0:0:00:45 / Wed May 13 00:26:11 2015
GPGPU-Sim uArch: cycles simulated: 29000  inst.: 1164288 (ipc=40.1) sim_rate=25310 (inst/sec) elapsed = 0:0:00:46 / Wed May 13 00:26:12 2015
GPGPU-Sim PTX: 1200000 instructions simulated : ctaid=(40,0,0) tid=(63,0,0)
GPGPU-Sim uArch: cycles simulated: 29500  inst.: 1186240 (ipc=40.2) sim_rate=25239 (inst/sec) elapsed = 0:0:00:47 / Wed May 13 00:26:13 2015
GPGPU-Sim uArch: cycles simulated: 30000  inst.: 1211136 (ipc=40.4) sim_rate=25232 (inst/sec) elapsed = 0:0:00:48 / Wed May 13 00:26:14 2015
GPGPU-Sim uArch: cycles simulated: 30500  inst.: 1237184 (ipc=40.6) sim_rate=25248 (inst/sec) elapsed = 0:0:00:49 / Wed May 13 00:26:15 2015
GPGPU-Sim uArch: cycles simulated: 31000  inst.: 1258240 (ipc=40.6) sim_rate=25164 (inst/sec) elapsed = 0:0:00:50 / Wed May 13 00:26:16 2015
GPGPU-Sim uArch: cycles simulated: 31500  inst.: 1282752 (ipc=40.7) sim_rate=25152 (inst/sec) elapsed = 0:0:00:51 / Wed May 13 00:26:17 2015
GPGPU-Sim PTX: 1300000 instructions simulated : ctaid=(3,0,0) tid=(31,0,0)
GPGPU-Sim uArch: cycles simulated: 32500  inst.: 1336320 (ipc=41.1) sim_rate=25698 (inst/sec) elapsed = 0:0:00:52 / Wed May 13 00:26:18 2015
GPGPU-Sim uArch: cycles simulated: 33000  inst.: 1357248 (ipc=41.1) sim_rate=25608 (inst/sec) elapsed = 0:0:00:53 / Wed May 13 00:26:19 2015
GPGPU-Sim uArch: cycles simulated: 33500  inst.: 1379264 (ipc=41.2) sim_rate=25541 (inst/sec) elapsed = 0:0:00:54 / Wed May 13 00:26:20 2015
GPGPU-Sim PTX: 1400000 instructions simulated : ctaid=(19,0,0) tid=(63,0,0)
GPGPU-Sim uArch: cycles simulated: 34000  inst.: 1400320 (ipc=41.2) sim_rate=25460 (inst/sec) elapsed = 0:0:00:55 / Wed May 13 00:26:21 2015
GPGPU-Sim uArch: cycles simulated: 34500  inst.: 1427648 (ipc=41.4) sim_rate=25493 (inst/sec) elapsed = 0:0:00:56 / Wed May 13 00:26:22 2015
GPGPU-Sim uArch: cycles simulated: 35000  inst.: 1455232 (ipc=41.6) sim_rate=25530 (inst/sec) elapsed = 0:0:00:57 / Wed May 13 00:26:23 2015
GPGPU-Sim uArch: cycles simulated: 35500  inst.: 1480448 (ipc=41.7) sim_rate=25524 (inst/sec) elapsed = 0:0:00:58 / Wed May 13 00:26:24 2015
GPGPU-Sim PTX: 1500000 instructions simulated : ctaid=(7,0,0) tid=(31,0,0)
GPGPU-Sim uArch: cycles simulated: 36000  inst.: 1503808 (ipc=41.8) sim_rate=25063 (inst/sec) elapsed = 0:0:01:00 / Wed May 13 00:26:26 2015
GPGPU-Sim uArch: cycles simulated: 36500  inst.: 1530240 (ipc=41.9) sim_rate=25085 (inst/sec) elapsed = 0:0:01:01 / Wed May 13 00:26:27 2015
GPGPU-Sim uArch: cycles simulated: 37000  inst.: 1557504 (ipc=42.1) sim_rate=25121 (inst/sec) elapsed = 0:0:01:02 / Wed May 13 00:26:28 2015
GPGPU-Sim PTX: 1600000 instructions simulated : ctaid=(23,0,0) tid=(63,0,0)
GPGPU-Sim uArch: cycles simulated: 38000  inst.: 1602816 (ipc=42.2) sim_rate=25441 (inst/sec) elapsed = 0:0:01:03 / Wed May 13 00:26:29 2015
GPGPU-Sim uArch: cycles simulated: 38500  inst.: 1624512 (ipc=42.2) sim_rate=25383 (inst/sec) elapsed = 0:0:01:04 / Wed May 13 00:26:30 2015
GPGPU-Sim uArch: cycles simulated: 39000  inst.: 1653888 (ipc=42.4) sim_rate=25444 (inst/sec) elapsed = 0:0:01:05 / Wed May 13 00:26:31 2015
GPGPU-Sim uArch: cycles simulated: 39500  inst.: 1678720 (ipc=42.5) sim_rate=25435 (inst/sec) elapsed = 0:0:01:06 / Wed May 13 00:26:32 2015
GPGPU-Sim PTX: 1700000 instructions simulated : ctaid=(28,0,0) tid=(31,0,0)
GPGPU-Sim uArch: cycles simulated: 40000  inst.: 1704768 (ipc=42.6) sim_rate=25444 (inst/sec) elapsed = 0:0:01:07 / Wed May 13 00:26:33 2015
GPGPU-Sim uArch: cycles simulated: 40500  inst.: 1728960 (ipc=42.7) sim_rate=25425 (inst/sec) elapsed = 0:0:01:08 / Wed May 13 00:26:34 2015
GPGPU-Sim uArch: cycles simulated: 41000  inst.: 1755072 (ipc=42.8) sim_rate=25435 (inst/sec) elapsed = 0:0:01:09 / Wed May 13 00:26:35 2015
GPGPU-Sim uArch: cycles simulated: 41500  inst.: 1778752 (ipc=42.9) sim_rate=25410 (inst/sec) elapsed = 0:0:01:10 / Wed May 13 00:26:36 2015
GPGPU-Sim PTX: 1800000 instructions simulated : ctaid=(16,0,0) tid=(63,0,0)
GPGPU-Sim uArch: cycles simulated: 42000  inst.: 1803712 (ipc=42.9) sim_rate=25404 (inst/sec) elapsed = 0:0:01:11 / Wed May 13 00:26:37 2015
GPGPU-Sim uArch: cycles simulated: 42500  inst.: 1827328 (ipc=43.0) sim_rate=25031 (inst/sec) elapsed = 0:0:01:13 / Wed May 13 00:26:39 2015
GPGPU-Sim uArch: cycles simulated: 43000  inst.: 1853824 (ipc=43.1) sim_rate=25051 (inst/sec) elapsed = 0:0:01:14 / Wed May 13 00:26:40 2015
GPGPU-Sim uArch: cycles simulated: 43500  inst.: 1882304 (ipc=43.3) sim_rate=25097 (inst/sec) elapsed = 0:0:01:15 / Wed May 13 00:26:41 2015
GPGPU-Sim PTX: 1900000 instructions simulated : ctaid=(20,0,0) tid=(31,0,0)
GPGPU-Sim uArch: cycles simulated: 44000  inst.: 1909184 (ipc=43.4) sim_rate=24794 (inst/sec) elapsed = 0:0:01:17 / Wed May 13 00:26:43 2015
GPGPU-Sim uArch: cycles simulated: 44500  inst.: 1936704 (ipc=43.5) sim_rate=24829 (inst/sec) elapsed = 0:0:01:18 / Wed May 13 00:26:44 2015
GPGPU-Sim uArch: cycles simulated: 45000  inst.: 1965376 (ipc=43.7) sim_rate=24567 (inst/sec) elapsed = 0:0:01:20 / Wed May 13 00:26:46 2015
GPGPU-Sim PTX: 2000000 instructions simulated : ctaid=(39,0,0) tid=(63,0,0)
GPGPU-Sim uArch: cycles simulated: 45500  inst.: 1994624 (ipc=43.8) sim_rate=24624 (inst/sec) elapsed = 0:0:01:21 / Wed May 13 00:26:47 2015
GPGPU-Sim uArch: cycles simulated: 46000  inst.: 2017408 (ipc=43.9) sim_rate=24306 (inst/sec) elapsed = 0:0:01:23 / Wed May 13 00:26:49 2015
GPGPU-Sim uArch: cycles simulated: 46500  inst.: 2048704 (ipc=44.1) sim_rate=24389 (inst/sec) elapsed = 0:0:01:24 / Wed May 13 00:26:50 2015
GPGPU-Sim uArch: cycles simulated: 47000  inst.: 2078976 (ipc=44.2) sim_rate=24174 (inst/sec) elapsed = 0:0:01:26 / Wed May 13 00:26:52 2015
GPGPU-Sim PTX: 2100000 instructions simulated : ctaid=(34,0,0) tid=(31,0,0)
GPGPU-Sim uArch: cycles simulated: 47500  inst.: 2109184 (ipc=44.4) sim_rate=24243 (inst/sec) elapsed = 0:0:01:27 / Wed May 13 00:26:53 2015
GPGPU-Sim uArch: cycles simulated: 48000  inst.: 2143040 (ipc=44.6) sim_rate=24079 (inst/sec) elapsed = 0:0:01:29 / Wed May 13 00:26:55 2015
GPGPU-Sim uArch: cycles simulated: 48500  inst.: 2174016 (ipc=44.8) sim_rate=24155 (inst/sec) elapsed = 0:0:01:30 / Wed May 13 00:26:56 2015
GPGPU-Sim PTX: 2200000 instructions simulated : ctaid=(20,0,0) tid=(63,0,0)
GPGPU-Sim uArch: cycles simulated: 49000  inst.: 2207360 (ipc=45.0) sim_rate=23993 (inst/sec) elapsed = 0:0:01:32 / Wed May 13 00:26:58 2015
GPGPU-Sim uArch: cycles simulated: 49500  inst.: 2235968 (ipc=45.2) sim_rate=23786 (inst/sec) elapsed = 0:0:01:34 / Wed May 13 00:27:00 2015
GPGPU-Sim uArch: cycles simulated: 50000  inst.: 2265728 (ipc=45.3) sim_rate=23849 (inst/sec) elapsed = 0:0:01:35 / Wed May 13 00:27:01 2015
GPGPU-Sim PTX: 2300000 instructions simulated : ctaid=(22,0,0) tid=(31,0,0)
GPGPU-Sim uArch: cycles simulated: 50500  inst.: 2298368 (ipc=45.5) sim_rate=23694 (inst/sec) elapsed = 0:0:01:37 / Wed May 13 00:27:03 2015
GPGPU-Sim uArch: cycles simulated: 51000  inst.: 2330432 (ipc=45.7) sim_rate=23779 (inst/sec) elapsed = 0:0:01:38 / Wed May 13 00:27:04 2015
GPGPU-Sim uArch: cycles simulated: 51500  inst.: 2361536 (ipc=45.9) sim_rate=23615 (inst/sec) elapsed = 0:0:01:40 / Wed May 13 00:27:06 2015
GPGPU-Sim PTX: 2400000 instructions simulated : ctaid=(22,0,0) tid=(63,0,0)
GPGPU-Sim uArch: cycles simulated: 52000  inst.: 2391616 (ipc=46.0) sim_rate=23679 (inst/sec) elapsed = 0:0:01:41 / Wed May 13 00:27:07 2015
GPGPU-Sim uArch: cycles simulated: 52500  inst.: 2416960 (ipc=46.0) sim_rate=23465 (inst/sec) elapsed = 0:0:01:43 / Wed May 13 00:27:09 2015
GPGPU-Sim uArch: cycles simulated: 53000  inst.: 2444288 (ipc=46.1) sim_rate=23502 (inst/sec) elapsed = 0:0:01:44 / Wed May 13 00:27:10 2015
GPGPU-Sim uArch: cycles simulated: 53500  inst.: 2470272 (ipc=46.2) sim_rate=23304 (inst/sec) elapsed = 0:0:01:46 / Wed May 13 00:27:12 2015
GPGPU-Sim PTX: 2500000 instructions simulated : ctaid=(8,0,0) tid=(31,0,0)
GPGPU-Sim uArch: cycles simulated: 54000  inst.: 2512512 (ipc=46.5) sim_rate=23481 (inst/sec) elapsed = 0:0:01:47 / Wed May 13 00:27:13 2015
GPGPU-Sim uArch: cycles simulated: 54500  inst.: 2580288 (ipc=47.3) sim_rate=23672 (inst/sec) elapsed = 0:0:01:49 / Wed May 13 00:27:15 2015
GPGPU-Sim PTX: 2600000 instructions simulated : ctaid=(10,0,0) tid=(63,0,0)
GPGPU-Sim uArch: cycles simulated: 55000  inst.: 2655808 (ipc=48.3) sim_rate=23926 (inst/sec) elapsed = 0:0:01:51 / Wed May 13 00:27:17 2015
GPGPU-Sim PTX: 2700000 instructions simulated : ctaid=(1,0,0) tid=(31,0,0)
GPGPU-Sim uArch: cycles simulated: 55500  inst.: 2741888 (ipc=49.4) sim_rate=24264 (inst/sec) elapsed = 0:0:01:53 / Wed May 13 00:27:19 2015
GPGPU-Sim PTX: 2800000 instructions simulated : ctaid=(21,0,0) tid=(63,0,0)
GPGPU-Sim uArch: cycles simulated: 56000  inst.: 2826880 (ipc=50.5) sim_rate=24581 (inst/sec) elapsed = 0:0:01:55 / Wed May 13 00:27:21 2015
GPGPU-Sim PTX: 2900000 instructions simulated : ctaid=(18,0,0) tid=(31,0,0)
GPGPU-Sim uArch: cycles simulated: 56500  inst.: 2914304 (ipc=51.6) sim_rate=24908 (inst/sec) elapsed = 0:0:01:57 / Wed May 13 00:27:23 2015
GPGPU-Sim PTX: 3000000 instructions simulated : ctaid=(32,0,0) tid=(63,0,0)
GPGPU-Sim uArch: cycles simulated: 57000  inst.: 3001024 (ipc=52.6) sim_rate=25218 (inst/sec) elapsed = 0:0:01:59 / Wed May 13 00:27:25 2015
GPGPU-Sim PTX: 3100000 instructions simulated : ctaid=(7,0,0) tid=(31,0,0)
GPGPU-Sim uArch: cycles simulated: 57500  inst.: 3086848 (ipc=53.7) sim_rate=25511 (inst/sec) elapsed = 0:0:02:01 / Wed May 13 00:27:27 2015
GPGPU-Sim uArch: cycles simulated: 58000  inst.: 3174016 (ipc=54.7) sim_rate=25805 (inst/sec) elapsed = 0:0:02:03 / Wed May 13 00:27:29 2015
GPGPU-Sim PTX: 3200000 instructions simulated : ctaid=(6,0,0) tid=(63,0,0)
GPGPU-Sim uArch: cycles simulated: 58500  inst.: 3258240 (ipc=55.7) sim_rate=26065 (inst/sec) elapsed = 0:0:02:05 / Wed May 13 00:27:31 2015
GPGPU-Sim PTX: 3300000 instructions simulated : ctaid=(12,0,0) tid=(31,0,0)
GPGPU-Sim uArch: cycles simulated: 59000  inst.: 3340928 (ipc=56.6) sim_rate=26306 (inst/sec) elapsed = 0:0:02:07 / Wed May 13 00:27:33 2015
GPGPU-Sim PTX: 3400000 instructions simulated : ctaid=(23,0,0) tid=(63,0,0)
GPGPU-Sim uArch: cycles simulated: 59500  inst.: 3423424 (ipc=57.5) sim_rate=26538 (inst/sec) elapsed = 0:0:02:09 / Wed May 13 00:27:35 2015
GPGPU-Sim PTX: 3500000 instructions simulated : ctaid=(25,0,0) tid=(31,0,0)
GPGPU-Sim uArch: cycles simulated: 60000  inst.: 3508352 (ipc=58.5) sim_rate=26781 (inst/sec) elapsed = 0:0:02:11 / Wed May 13 00:27:37 2015
GPGPU-Sim PTX: 3600000 instructions simulated : ctaid=(25,0,0) tid=(63,0,0)
GPGPU-Sim uArch: cycles simulated: 60500  inst.: 3595520 (ipc=59.4) sim_rate=27033 (inst/sec) elapsed = 0:0:02:13 / Wed May 13 00:27:39 2015
GPGPU-Sim uArch: cycles simulated: 61000  inst.: 3680704 (ipc=60.3) sim_rate=27264 (inst/sec) elapsed = 0:0:02:15 / Wed May 13 00:27:41 2015
GPGPU-Sim PTX: 3700000 instructions simulated : ctaid=(21,0,0) tid=(31,0,0)
GPGPU-Sim uArch: cycles simulated: 61500  inst.: 3765696 (ipc=61.2) sim_rate=27486 (inst/sec) elapsed = 0:0:02:17 / Wed May 13 00:27:43 2015
GPGPU-Sim PTX: 3800000 instructions simulated : ctaid=(1,0,0) tid=(63,0,0)
GPGPU-Sim uArch: cycles simulated: 62000  inst.: 3847040 (ipc=62.0) sim_rate=27676 (inst/sec) elapsed = 0:0:02:19 / Wed May 13 00:27:45 2015
GPGPU-Sim PTX: 3900000 instructions simulated : ctaid=(41,0,0) tid=(31,0,0)
GPGPU-Sim uArch: cycles simulated: 62500  inst.: 3929856 (ipc=62.9) sim_rate=27675 (inst/sec) elapsed = 0:0:02:22 / Wed May 13 00:27:48 2015
GPGPU-Sim PTX: 4000000 instructions simulated : ctaid=(40,0,0) tid=(63,0,0)
GPGPU-Sim uArch: cycles simulated: 63000  inst.: 4014144 (ipc=63.7) sim_rate=27876 (inst/sec) elapsed = 0:0:02:24 / Wed May 13 00:27:50 2015
GPGPU-Sim PTX: 4100000 instructions simulated : ctaid=(9,0,0) tid=(31,0,0)
GPGPU-Sim uArch: cycles simulated: 63500  inst.: 4096000 (ipc=64.5) sim_rate=28054 (inst/sec) elapsed = 0:0:02:26 / Wed May 13 00:27:52 2015
GPGPU-Sim uArch: cycles simulated: 64000  inst.: 4182400 (ipc=65.3) sim_rate=28259 (inst/sec) elapsed = 0:0:02:28 / Wed May 13 00:27:54 2015
GPGPU-Sim PTX: 4200000 instructions simulated : ctaid=(34,0,0) tid=(63,0,0)
GPGPU-Sim uArch: cycles simulated: 64500  inst.: 4269120 (ipc=66.2) sim_rate=28460 (inst/sec) elapsed = 0:0:02:30 / Wed May 13 00:27:56 2015
GPGPU-Sim PTX: 4300000 instructions simulated : ctaid=(10,0,0) tid=(31,0,0)
GPGPU-Sim uArch: cycles simulated: 65000  inst.: 4349824 (ipc=66.9) sim_rate=28617 (inst/sec) elapsed = 0:0:02:32 / Wed May 13 00:27:58 2015
GPGPU-Sim PTX: 4400000 instructions simulated : ctaid=(40,0,0) tid=(63,0,0)
GPGPU-Sim uArch: cycles simulated: 65500  inst.: 4432192 (ipc=67.7) sim_rate=28780 (inst/sec) elapsed = 0:0:02:34 / Wed May 13 00:28:00 2015
GPGPU-Sim PTX: 4500000 instructions simulated : ctaid=(19,0,0) tid=(31,0,0)
GPGPU-Sim uArch: cycles simulated: 66000  inst.: 4510720 (ipc=68.3) sim_rate=29101 (inst/sec) elapsed = 0:0:02:35 / Wed May 13 00:28:01 2015
GPGPU-Sim PTX: 4600000 instructions simulated : ctaid=(42,0,0) tid=(63,0,0)
GPGPU-Sim uArch: cycles simulated: 66500  inst.: 4593664 (ipc=69.1) sim_rate=29259 (inst/sec) elapsed = 0:0:02:37 / Wed May 13 00:28:03 2015
GPGPU-Sim uArch: cycles simulated: 67000  inst.: 4674176 (ipc=69.8) sim_rate=29583 (inst/sec) elapsed = 0:0:02:38 / Wed May 13 00:28:04 2015
GPGPU-Sim PTX: 4700000 instructions simulated : ctaid=(24,0,0) tid=(31,0,0)
GPGPU-Sim uArch: cycles simulated: 67500  inst.: 4756736 (ipc=70.5) sim_rate=29729 (inst/sec) elapsed = 0:0:02:40 / Wed May 13 00:28:06 2015
GPGPU-Sim PTX: 4800000 instructions simulated : ctaid=(8,0,0) tid=(63,0,0)
GPGPU-Sim uArch: cycles simulated: 68000  inst.: 4839232 (ipc=71.2) sim_rate=29871 (inst/sec) elapsed = 0:0:02:42 / Wed May 13 00:28:08 2015
GPGPU-Sim PTX: 4900000 instructions simulated : ctaid=(43,0,0) tid=(31,0,0)
GPGPU-Sim uArch: cycles simulated: 68500  inst.: 4917376 (ipc=71.8) sim_rate=30167 (inst/sec) elapsed = 0:0:02:43 / Wed May 13 00:28:09 2015
GPGPU-Sim PTX: 5000000 instructions simulated : ctaid=(18,0,0) tid=(63,0,0)
GPGPU-Sim uArch: cycles simulated: 69000  inst.: 4995712 (ipc=72.4) sim_rate=30277 (inst/sec) elapsed = 0:0:02:45 / Wed May 13 00:28:11 2015
GPGPU-Sim uArch: cycles simulated: 69500  inst.: 5077056 (ipc=73.1) sim_rate=30584 (inst/sec) elapsed = 0:0:02:46 / Wed May 13 00:28:12 2015
GPGPU-Sim PTX: 5100000 instructions simulated : ctaid=(33,0,0) tid=(31,0,0)
GPGPU-Sim uArch: cycles simulated: 70000  inst.: 5158656 (ipc=73.7) sim_rate=30706 (inst/sec) elapsed = 0:0:02:48 / Wed May 13 00:28:14 2015
GPGPU-Sim PTX: 5200000 instructions simulated : ctaid=(37,0,0) tid=(63,0,0)
GPGPU-Sim uArch: cycles simulated: 70500  inst.: 5235648 (ipc=74.3) sim_rate=30797 (inst/sec) elapsed = 0:0:02:50 / Wed May 13 00:28:16 2015
GPGPU-Sim PTX: 5300000 instructions simulated : ctaid=(34,0,0) tid=(31,0,0)
GPGPU-Sim uArch: cycles simulated: 71000  inst.: 5313792 (ipc=74.8) sim_rate=31074 (inst/sec) elapsed = 0:0:02:51 / Wed May 13 00:28:17 2015
GPGPU-Sim PTX: 5400000 instructions simulated : ctaid=(33,0,0) tid=(63,0,0)
GPGPU-Sim uArch: cycles simulated: 71500  inst.: 5393216 (ipc=75.4) sim_rate=31174 (inst/sec) elapsed = 0:0:02:53 / Wed May 13 00:28:19 2015
GPGPU-Sim uArch: cycles simulated: 72000  inst.: 5474880 (ipc=76.0) sim_rate=31464 (inst/sec) elapsed = 0:0:02:54 / Wed May 13 00:28:20 2015
GPGPU-Sim PTX: 5500000 instructions simulated : ctaid=(11,0,0) tid=(31,0,0)
GPGPU-Sim uArch: cycles simulated: 72500  inst.: 5552128 (ipc=76.6) sim_rate=31546 (inst/sec) elapsed = 0:0:02:56 / Wed May 13 00:28:22 2015
GPGPU-Sim PTX: 5600000 instructions simulated : ctaid=(34,0,0) tid=(63,0,0)
GPGPU-Sim uArch: cycles simulated: 73000  inst.: 5629760 (ipc=77.1) sim_rate=31806 (inst/sec) elapsed = 0:0:02:57 / Wed May 13 00:28:23 2015
GPGPU-Sim PTX: 5700000 instructions simulated : ctaid=(23,0,0) tid=(31,0,0)
GPGPU-Sim uArch: cycles simulated: 73500  inst.: 5711040 (ipc=77.7) sim_rate=31905 (inst/sec) elapsed = 0:0:02:59 / Wed May 13 00:28:25 2015
GPGPU-Sim PTX: 5800000 instructions simulated : ctaid=(25,0,0) tid=(63,0,0)
GPGPU-Sim uArch: cycles simulated: 74000  inst.: 5792448 (ipc=78.3) sim_rate=32180 (inst/sec) elapsed = 0:0:03:00 / Wed May 13 00:28:26 2015
GPGPU-Sim uArch: cycles simulated: 74500  inst.: 5873152 (ipc=78.8) sim_rate=32270 (inst/sec) elapsed = 0:0:03:02 / Wed May 13 00:28:28 2015
GPGPU-Sim PTX: 5900000 instructions simulated : ctaid=(12,0,0) tid=(31,0,0)
GPGPU-Sim uArch: cycles simulated: 75000  inst.: 5958016 (ipc=79.4) sim_rate=32380 (inst/sec) elapsed = 0:0:03:04 / Wed May 13 00:28:30 2015
GPGPU-Sim PTX: 6000000 instructions simulated : ctaid=(0,0,0) tid=(63,0,0)
GPGPU-Sim uArch: cycles simulated: 75500  inst.: 6036224 (ipc=79.9) sim_rate=32628 (inst/sec) elapsed = 0:0:03:05 / Wed May 13 00:28:31 2015
GPGPU-Sim PTX: 6100000 instructions simulated : ctaid=(0,0,0) tid=(31,0,0)
GPGPU-Sim uArch: cycles simulated: 76000  inst.: 6112896 (ipc=80.4) sim_rate=32689 (inst/sec) elapsed = 0:0:03:07 / Wed May 13 00:28:33 2015
GPGPU-Sim PTX: 6200000 instructions simulated : ctaid=(40,0,0) tid=(63,0,0)
GPGPU-Sim uArch: cycles simulated: 76500  inst.: 6189632 (ipc=80.9) sim_rate=32923 (inst/sec) elapsed = 0:0:03:08 / Wed May 13 00:28:34 2015
GPGPU-Sim uArch: cycles simulated: 77000  inst.: 6272128 (ipc=81.5) sim_rate=33011 (inst/sec) elapsed = 0:0:03:10 / Wed May 13 00:28:36 2015
GPGPU-Sim PTX: 6300000 instructions simulated : ctaid=(2,0,0) tid=(31,0,0)
GPGPU-Sim uArch: cycles simulated: 77500  inst.: 6356544 (ipc=82.0) sim_rate=33280 (inst/sec) elapsed = 0:0:03:11 / Wed May 13 00:28:37 2015
GPGPU-Sim PTX: 6400000 instructions simulated : ctaid=(32,0,0) tid=(63,0,0)
GPGPU-Sim uArch: cycles simulated: 78000  inst.: 6435712 (ipc=82.5) sim_rate=33345 (inst/sec) elapsed = 0:0:03:13 / Wed May 13 00:28:39 2015
GPGPU-Sim PTX: 6500000 instructions simulated : ctaid=(19,0,0) tid=(31,0,0)
GPGPU-Sim uArch: cycles simulated: 78500  inst.: 6513152 (ipc=83.0) sim_rate=33572 (inst/sec) elapsed = 0:0:03:14 / Wed May 13 00:28:40 2015
GPGPU-Sim PTX: 6600000 instructions simulated : ctaid=(35,0,0) tid=(63,0,0)
GPGPU-Sim uArch: cycles simulated: 79000  inst.: 6590656 (ipc=83.4) sim_rate=33625 (inst/sec) elapsed = 0:0:03:16 / Wed May 13 00:28:42 2015
GPGPU-Sim uArch: cycles simulated: 79500  inst.: 6675456 (ipc=84.0) sim_rate=33885 (inst/sec) elapsed = 0:0:03:17 / Wed May 13 00:28:43 2015
GPGPU-Sim PTX: 6700000 instructions simulated : ctaid=(23,0,0) tid=(31,0,0)
GPGPU-Sim uArch: cycles simulated: 80000  inst.: 6758336 (ipc=84.5) sim_rate=33961 (inst/sec) elapsed = 0:0:03:19 / Wed May 13 00:28:45 2015
GPGPU-Sim PTX: 6800000 instructions simulated : ctaid=(31,0,0) tid=(63,0,0)
GPGPU-Sim uArch: cycles simulated: 80500  inst.: 6838400 (ipc=84.9) sim_rate=34192 (inst/sec) elapsed = 0:0:03:20 / Wed May 13 00:28:46 2015
GPGPU-Sim PTX: 6900000 instructions simulated : ctaid=(14,0,0) tid=(31,0,0)
GPGPU-Sim uArch: cycles simulated: 81000  inst.: 6914944 (ipc=85.4) sim_rate=34232 (inst/sec) elapsed = 0:0:03:22 / Wed May 13 00:28:48 2015
GPGPU-Sim PTX: 7000000 instructions simulated : ctaid=(26,0,0) tid=(63,0,0)
GPGPU-Sim uArch: cycles simulated: 81500  inst.: 6995392 (ipc=85.8) sim_rate=34291 (inst/sec) elapsed = 0:0:03:24 / Wed May 13 00:28:50 2015
GPGPU-Sim uArch: cycles simulated: 82000  inst.: 7075200 (ipc=86.3) sim_rate=34513 (inst/sec) elapsed = 0:0:03:25 / Wed May 13 00:28:51 2015
GPGPU-Sim PTX: 7100000 instructions simulated : ctaid=(34,0,0) tid=(31,0,0)
GPGPU-Sim uArch: cycles simulated: 82500  inst.: 7157248 (ipc=86.8) sim_rate=34576 (inst/sec) elapsed = 0:0:03:27 / Wed May 13 00:28:53 2015
GPGPU-Sim PTX: 7200000 instructions simulated : ctaid=(19,0,0) tid=(63,0,0)
GPGPU-Sim uArch: cycles simulated: 83000  inst.: 7239744 (ipc=87.2) sim_rate=34639 (inst/sec) elapsed = 0:0:03:29 / Wed May 13 00:28:55 2015
[...]
dq_lat_table:0 	0 	0 	0 	0 	0 	0 	0 	0 	0 	0 	0 	0 	0 	0 	0 	0 	0 	0 	0 	0 	0 	0 	0 	0 	0 	0 	0 	0 	0 	0 	0 	
mf_lat_table:0 	0 	0 	0 	0 	0 	0 	58784 	1822560 	40155 	17227 	0 	0 	0 	0 	0 	0 	0 	0 	0 	0 	0 	0 	0 	0 	0 	0 	0 	0 	0 	0 	0 	
icnt2mem_lat_table:0 	0 	0 	1354043 	1276774 	150732 	11824 	9644 	18465 	19613 	33 	0 	0 	0 	0 	0 	0 	0 	0 	0 	0 	0 	0 	0 	
icnt2sh_lat_table:0 	0 	0 	1182853 	371579 	0 	0 	0 	0 	0 	0 	380 	1004 	2008 	4344 	6664 	0 	0 	0 	0 	12712 	138635 	196273 	22274 	
mf_lat_pw_table:0 	0 	0 	0 	0 	0 	0 	3247 	23221 	210 	127 	0 	0 	0 	0 	0 	0 	0 	0 	0 	0 	0 	0 	0 	0 	0 	0 	0 	0 	0 	0 	0 	
maximum concurrent accesses to same row:
dram[0]:        60         0        64         0        64         0        56         0        64         0        64         0        56         0        56         0 
dram[1]:         2         0         0         0         0         0         0         0         0         0         0         0         0         0         0         0 
dram[2]:         2        64         0        64         0        64         0        64         0        64         0        64         0        48         0        40 
dram[3]:         2         0         0         0         0         0         0         0         0         0         0         0         0         0         0         0 
dram[4]:        64         0        64         0        64         0        64         0        64         0        64         0        48         0        40         0 
dram[5]:         0         0         0         0         0         0         0         0         0         0         0         0         0         0         0         0 
maximum service time to same row:
dram[0]:     58875       232     31592         0     65052   1515349     78358   3646353     82501         0     47082         0     70806         0     64181         0 
dram[1]:   1528919      1378         0         0   1496152   1496013   3652149   3681647         0         0         0         0         0         0         0         0 
dram[2]:   1529968    146662         0    127234   1512038    125150   3684979     88503         0     73618         0     68524         0     68922         0    104907 
dram[3]:   1622147     27304         0         0   1503252   1501404   3662069   3675391         0         0         0         0         0         0         0         0 
dram[4]:   1275109   1426666     29946         0     15922   1504079     62634   3646049     16757         0     34163         0     16906         0     25316         0 
dram[5]:       232   1457694         0         0   1505293   1492516   3683199   3682485         0         0         0         0         0         0         0         0 
average row accesses per activate:
dram[0]:  3.411100  4.000000  3.375727      -nan  3.419193 20.000000  3.432424 20.000000  3.393209      -nan  3.395011      -nan  3.408366      -nan  3.399408      -nan 
dram[1]:  4.000000  4.000000      -nan      -nan 20.000000 20.000000 24.000000 20.000000      -nan      -nan      -nan      -nan      -nan      -nan      -nan      -nan 
dram[2]:  4.000000  3.350924      -nan  3.334105 20.000000  3.356455 24.000000  3.397880      -nan  3.338813      -nan  3.348108      -nan  3.351378      -nan  3.341118 
dram[3]:  4.000000  4.000000      -nan      -nan 20.000000 24.000000 24.000000 20.000000      -nan      -nan      -nan      -nan      -nan      -nan      -nan      -nan 
dram[4]:  3.225231  4.000000  3.182994      -nan  3.213799 24.000000  3.230603 20.000000  3.191527      -nan  3.202114      -nan  3.234009      -nan  3.191334      -nan 
dram[5]:  3.000000  4.000000      -nan      -nan 20.000000 24.000000 20.000000 20.000000      -nan      -nan      -nan      -nan      -nan      -nan      -nan      -nan 
average row locality = 3891814/1171621 = 3.321735
number of total memory accesses made:
dram[0]:         0         0         0         0         0         0         0         0         0         0         0         0         0         0         0         0 
dram[1]:         0         0         0         0         0         0         0         0         0         0         0         0         0         0         0         0 
dram[2]:         0         0         0         0         0         0         0         0         0         0         0         0         0         0         0         0 
dram[3]:         0         0         0         0         0         0         0         0         0         0         0         0         0         0         0         0 
dram[4]:         0         0         0         0         0         0         0         0         0         0         0         0         0         0         0         0 
dram[5]:         0         0         0         0         0         0         0         0         0         0         0         0         0         0         0         0 
total accesses: 0
min_bank_accesses = 0!
min_chip_accesses = 0!
number of total read accesses:
dram[0]:    113882         4    115312         0    106365        10    109887        10    109094         0    112976         0    112390         0    112253         0 
dram[1]:         4         4         0         0        10        10        12        10         0         0         0         0         0         0         0         0 
dram[2]:         4    114315         0    114682        10    105469        12    109978         0    108579         0    112946         0    112311         0    111852 
dram[3]:         4         4         0         0        10        12        12        10         0         0         0         0         0         0         0         0 
dram[4]:    108002         4    109205         0    100095        12    104101        10    103382         0    106663         0    107470         0    105757         0 
dram[5]:         3         4         0         0        10        12        10        10         0         0         0         0         0         0         0         0 
total reads: 2627193
min_bank_accesses = 0!
chip skew: 892183/49 = 18207.82
number of total write accesses:
dram[0]:     54640         0     55834         0     51082        10     52144        10     53003         0     54028         0     53911         0     54182         0 
dram[1]:         0         0         0         0        10        10        12        10         0         0         0         0         0         0         0         0 
dram[2]:         0     54528         0     55354        10     50586        12     51880         0     52472         0     53686         0     53914         0     53814 
dram[3]:         0         0         0         0        10        12        12        10         0         0         0         0         0         0         0         0 
dram[4]:     51934         0     53481         0     48450        12     49792        10     50673         0     51467         0     51944         0     51630         0 
dram[5]:         0         0         0         0        10        12        10        10         0         0         0         0         0         0         0         0 
total reads: 1264621
min_bank_accesses = 0!
chip skew: 428844/42 = 10210.57
average mf latency per bank:
dram[0]:        156         0       156    none         159       229       159       140       158    none         157    none         156    none         158    none  
dram[1]:       2750         0    none      none         205       204       131       131    none      none      none      none      none      none      none      none  
dram[2]:       2633       155    none         156       225       160       181       158    none         158    none         157    none         156    none         158
dram[3]:       1170         0    none      none         204       235       131       131    none      none      none      none      none      none      none      none  
dram[4]:        155         0       155    none         159       219       158       140       157    none         157    none         155    none         158    none  
dram[5]:          0         0    none      none         205       205       154       131    none      none      none      none      none      none      none      none  
maximum mf latency per bank:
dram[0]:       1590         0      1627         0      1728       418      1590       352      1707         0      1910         0      1670         0      1746         0
dram[1]:        445         0         0         0       280       278       278       278         0         0         0         0         0         0         0         0
dram[2]:        273      1501         0      1514       411      1571       719      1637         0      1582         0      1682         0      1490         0      1499
dram[3]:        294         0         0         0       278       633       278       278         0         0         0         0         0         0         0         0
dram[4]:       1575         0      1575         0      1743       385      1647       374      1676         0      1749         0      1618         0      1636         0
dram[5]:          0         0         0         0       279       278       499       278         0         0         0         0         0         0         0         0

Number of Memory Banks Accessed per Memory Operation per Warp (from 0):
0	0	0	0	0	0	0	0	0	0	0	0	0	0	0	0	0	0	0	0	0	0	0	0	0	0	0	0	0	0	0	0	0	0	0	0	0	0	0	0	0	0	0	0	0	0	0	0	0	0	0	0	0	0	0	0	0	0	0	0	0	0	0	0	0	0	0	0	0	0	0	0	0	0	0	0	0	0	0	0	0	0	0	0	0	0	0	0	0	0	0	0	0	0	0	0	
Average # of Memory Banks Accessed per Memory Operation per Warp=-nan

position of mrq chosen
0	0	0	0	0	0	0	0	0	0	0	0	0	0	0	0	

average position of mrq chosen = -nan
Memory Partition 0: 
Cache L2_bank_000:
MSHR contents

Cache L2_bank_001:
MSHR contents

In Dram Latency Queue (total = 0): 
DRAM[0]: 16 bks, busW=4 BL=8 CL=12, tRRD=2 tCCD=6, tRCD=12 tRAS=28 tRP=12 tRC=40
n_cmd=17697089 n_nop=14278896 n_act=388075 n_pre=388064 n_req=1321027 n_rd=1784366 n_write=857688 bw_util=0.2986
n_activity=12662525 dram_eff=0.4173
bk0: 227764a 13697970i bk1: 8a 17648782i bk2: 230624a 13602520i bk3: 0a 17643426i bk4: 212730a 13877561i bk5: 20a 17653447i bk6: 219774a 13746421i bk7: 20a 17657702i bk8: 218188a 13858286i bk9: 0a 17657349i bk10: 225952a 13696912i bk11: 0a 17654102i bk12: 224780a 13667424i bk13: 0a 17653571i bk14: 224506a 13647457i bk15: 0a 17653040i 
dram_util_bins: 0 0 0 0 0 0 0 0 0 0
dram_eff_bins: 0 0 0 0 0 0 0 0 0 0
mrqq: max=16 avg=3.64123
Memory Partition 1: 
Cache L2_bank_002:
MSHR contents

Cache L2_bank_003:
MSHR contents

In Dram Latency Queue (total = 0): 
DRAM[1]: 16 bks, busW=4 BL=8 CL=12, tRRD=2 tCCD=6, tRCD=12 tRAS=28 tRP=12 tRC=40
n_cmd=17697089 n_nop=17696897 n_act=7 n_pre=1 n_req=92 n_rd=100 n_write=84 bw_util=2.079e-05
n_activity=1453 dram_eff=0.2533
bk0: 8a 17697038i bk1: 8a 17697062i bk2: 0a 17697090i bk3: 0a 17697091i bk4: 20a 17696848i bk5: 20a 17696847i bk6: 24a 17696798i bk7: 20a 17696845i bk8: 0a 17697086i bk9: 0a 17697086i bk10: 0a 17697087i bk11: 0a 17697089i bk12: 0a 17697089i bk13: 0a 17697089i bk14: 0a 17697089i bk15: 0a 17697090i 
dram_util_bins: 0 0 0 0 0 0 0 0 0 0
dram_eff_bins: 0 0 0 0 0 0 0 0 0 0
mrqq: max=3 avg=4.84826e-05
Memory Partition 2: 
Cache L2_bank_004:
MSHR contents

Cache L2_bank_005:
MSHR contents

In Dram Latency Queue (total = 0): 
DRAM[2]: 16 bks, busW=4 BL=8 CL=12, tRRD=2 tCCD=6, tRCD=12 tRAS=28 tRP=12 tRC=40
n_cmd=17697089 n_nop=14278858 n_act=392707 n_pre=392696 n_req=1316414 n_rd=1780316 n_write=852512 bw_util=0.2975
n_activity=12626785 dram_eff=0.417
bk0: 8a 17652201i bk1: 228630a 13667672i bk2: 0a 17646750i bk3: 229364a 13615645i bk4: 20a 17642787i bk5: 210938a 13897779i bk6: 24a 17652965i bk7: 219956a 13727214i bk8: 0a 17657362i bk9: 217158a 13876493i bk10: 0a 17657275i bk11: 225892a 13691780i bk12: 0a 17654643i bk13: 224622a 13658339i bk14: 0a 17652823i bk15: 223704a 13647544i 
dram_util_bins: 0 0 0 0 0 0 0 0 0 0
dram_eff_bins: 0 0 0 0 0 0 0 0 0 0
mrqq: max=16 avg=3.63253
Memory Partition 3: 
Cache L2_bank_006:
MSHR contents
MSHR: tag=0x80007f00, atomic=0 1 entries : 0x7fe40f38b5a0 :  mf: uid=15434667, sid11:w00, part=3, addr=0x80007f00, load , size=128, unknown  status = IN_PARTITION_DRAM (13406884), 

Cache L2_bank_007:
MSHR contents

In Dram Latency Queue (total = 0): 
DRAM[3]: 16 bks, busW=4 BL=8 CL=12, tRRD=2 tCCD=6, tRCD=12 tRAS=28 tRP=12 tRC=40
n_cmd=17697089 n_nop=17696889 n_act=7 n_pre=1 n_req=96 n_rd=104 n_write=88 bw_util=2.17e-05
n_activity=1503 dram_eff=0.2555
bk0: 8a 17697038i bk1: 8a 17697060i bk2: 0a 17697087i bk3: 0a 17697092i bk4: 20a 17696850i bk5: 24a 17696801i bk6: 24a 17696799i bk7: 20a 17696844i bk8: 0a 17697085i bk9: 0a 17697086i bk10: 0a 17697087i bk11: 0a 17697088i bk12: 0a 17697088i bk13: 0a 17697089i bk14: 0a 17697090i bk15: 0a 17697091i 
dram_util_bins: 0 0 0 0 0 0 0 0 0 0
dram_eff_bins: 0 0 0 0 0 0 0 0 0 0
mrqq: max=3 avg=5.02908e-05
Memory Partition 4: 
Cache L2_bank_008:
MSHR contents

Cache L2_bank_009:
MSHR contents

In Dram Latency Queue (total = 0): 
DRAM[4]: 16 bks, busW=4 BL=8 CL=12, tRRD=2 tCCD=6, tRCD=12 tRAS=28 tRP=12 tRC=40
n_cmd=17697089 n_nop=14407266 n_act=390823 n_pre=390812 n_req=1254094 n_rd=1689402 n_write=818786 bw_util=0.2835
n_activity=11770920 dram_eff=0.4262
bk0: 216004a 13790197i bk1: 8a 17648434i bk2: 218410a 13692402i bk3: 0a 17643153i bk4: 200190a 13997373i bk5: 24a 17652740i bk6: 208202a 13825034i bk7: 20a 17656221i bk8: 206764a 13952454i bk9: 0a 17655825i bk10: 213326a 13805786i bk11: 0a 17653537i bk12: 214940a 13728952i bk13: 0a 17652334i bk14: 211514a 13748105i bk15: 0a 17651238i 
dram_util_bins: 0 0 0 0 0 0 0 0 0 0
dram_eff_bins: 0 0 0 0 0 0 0 0 0 0
mrqq: max=16 avg=3.53152
Memory Partition 5: 
Cache L2_bank_010:
MSHR contents

Cache L2_bank_011:
MSHR contents

In Dram Latency Queue (total = 0): 
DRAM[5]: 16 bks, busW=4 BL=8 CL=12, tRRD=2 tCCD=6, tRCD=12 tRAS=28 tRP=12 tRC=40
n_cmd=17697089 n_nop=17696901 n_act=6 n_pre=0 n_req=91 n_rd=98 n_write=84 bw_util=2.057e-05
n_activity=1401 dram_eff=0.2598
bk0: 6a 17697066i bk1: 8a 17697061i bk2: 0a 17697089i bk3: 0a 17697090i bk4: 20a 17696848i bk5: 24a 17696799i bk6: 20a 17696845i bk7: 20a 17696843i bk8: 0a 17697085i bk9: 0a 17697087i bk10: 0a 17697088i bk11: 0a 17697088i bk12: 0a 17697090i bk13: 0a 17697090i bk14: 0a 17697091i bk15: 0a 17697091i 
dram_util_bins: 0 0 0 0 0 0 0 0 0 0
dram_eff_bins: 0 0 0 0 0 0 0 0 0 0
mrqq: max=3 avg=4.8087e-05

========= L2 cache stats =========
L2_cache_bank[0]: Access = 966461, Miss = 892159, Miss_rate = 0.923, Pending_hits = 43, Reservation_fails = 98804
L2_cache_bank[1]: Access = 162, Miss = 24, Miss_rate = 0.148, Pending_hits = 12, Reservation_fails = 389
L2_cache_bank[2]: Access = 145, Miss = 26, Miss_rate = 0.179, Pending_hits = 6, Reservation_fails = 191
L2_cache_bank[3]: Access = 128, Miss = 24, Miss_rate = 0.188, Pending_hits = 12, Reservation_fails = 377
L2_cache_bank[4]: Access = 160, Miss = 26, Miss_rate = 0.163, Pending_hits = 4, Reservation_fails = 108
L2_cache_bank[5]: Access = 962232, Miss = 890132, Miss_rate = 0.925, Pending_hits = 36, Reservation_fails = 99472
L2_cache_bank[6]: Access = 130, Miss = 26, Miss_rate = 0.200, Pending_hits = 0, Reservation_fails = 0
L2_cache_bank[7]: Access = 132, Miss = 26, Miss_rate = 0.197, Pending_hits = 12, Reservation_fails = 0
L2_cache_bank[8]: Access = 911182, Miss = 844675, Miss_rate = 0.927, Pending_hits = 29, Reservation_fails = 93334
L2_cache_bank[9]: Access = 132, Miss = 26, Miss_rate = 0.197, Pending_hits = 0, Reservation_fails = 0
L2_cache_bank[10]: Access = 132, Miss = 23, Miss_rate = 0.174, Pending_hits = 3, Reservation_fails = 116
L2_cache_bank[11]: Access = 132, Miss = 26, Miss_rate = 0.197, Pending_hits = 0, Reservation_fails = 0
L2_total_cache_accesses = 2841128
L2_total_cache_misses = 2627193
L2_total_cache_miss_rate = 0.9247
L2_total_cache_pending_hits = 157
L2_total_cache_reservation_fails = 292791
L2_total_cache_breakdown:
	L2_cache_stats_breakdown[LOCAL_ACC_R][HIT] = 52421
	L2_cache_stats_breakdown[LOCAL_ACC_R][HIT_RESERVED] = 84
	L2_cache_stats_breakdown[LOCAL_ACC_R][MISS] = 1501777
	L2_cache_stats_breakdown[LOCAL_ACC_R][RESERVATION_FAIL] = 76426
	L2_cache_stats_breakdown[CONST_ACC_R][HIT] = 130
	L2_cache_stats_breakdown[CONST_ACC_R][HIT_RESERVED] = 13
	L2_cache_stats_breakdown[CONST_ACC_R][MISS] = 7
	L2_cache_stats_breakdown[CONST_ACC_R][RESERVATION_FAIL] = 399
	L2_cache_stats_breakdown[GLOBAL_ACC_W][HIT] = 96
	L2_cache_stats_breakdown[GLOBAL_ACC_W][MISS] = 288
	L2_cache_stats_breakdown[GLOBAL_ACC_W][RESERVATION_FAIL] = 167
	L2_cache_stats_breakdown[LOCAL_ACC_W][HIT] = 392
	L2_cache_stats_breakdown[LOCAL_ACC_W][HIT_RESERVED] = 10
	L2_cache_stats_breakdown[LOCAL_ACC_W][MISS] = 383508
	L2_cache_stats_breakdown[LOCAL_ACC_W][RESERVATION_FAIL] = 174781
	L2_cache_stats_breakdown[L1_WRBK_ACC][HIT] = 159798
	L2_cache_stats_breakdown[L1_WRBK_ACC][MISS] = 741510
	L2_cache_stats_breakdown[L1_WRBK_ACC][RESERVATION_FAIL] = 39606
	L2_cache_stats_breakdown[INST_ACC_R][HIT] = 941
	L2_cache_stats_breakdown[INST_ACC_R][HIT_RESERVED] = 50
	L2_cache_stats_breakdown[INST_ACC_R][MISS] = 103
	L2_cache_stats_breakdown[INST_ACC_R][RESERVATION_FAIL] = 1412
L2_cache_data_port_util = 0.008
L2_cache_fill_port_util = 0.065

icnt_total_pkts_mem_to_simt=8161624
icnt_total_pkts_simt_to_mem=7983536
LD_mem_lat_dist  0 0 0 0 0 0 0 0 0 0 0 0 0 0 0 0 0 0 0 0 0 0 0 0 0 0 0
ST_mem_lat_dist  0 0 0 0 0 0 0 0 0 0 0 0 0 0 0 0 0 0 0 0 0 0 0 0 0 0 0
----------------------------Interconnect-DETAILS--------------------------------
Class 0:
Packet latency average = 13.3098
	minimum = 6
	maximum = 380
Network latency average = 11.504
	minimum = 6
	maximum = 349
Slowest packet = 958787
Flit latency average = 9.12123
	minimum = 6
	maximum = 345
Slowest flit = 3508962
Fragmentation average = 0.0338491
	minimum = 0
	maximum = 270
Injected packet rate average = 0.013431
	minimum = 8.34836e-06 (at node 18)
	maximum = 0.0522729 (at node 15)
Accepted packet rate average = 0.013431
	minimum = 8.34836e-06 (at node 18)
	maximum = 0.0722159 (at node 15)
Injected flit rate average = 0.0445976
	minimum = 3.41524e-05 (at node 18)
	maximum = 0.215202 (at node 15)
Accepted flit rate average= 0.0445976
	minimum = 1.59378e-05 (at node 18)
	maximum = 0.198151 (at node 15)
Injected packet length average = 3.3205
Accepted packet length average = 3.3205
Total in-flight flits = 0 (0 measured)
====== Overall Traffic Statistics ======
====== Traffic class 0 ======
Packet latency average = 14.463 (2 samples)
	minimum = 6 (2 samples)
	maximum = 589 (2 samples)
Network latency average = 12.3163 (2 samples)
	minimum = 6 (2 samples)
	maximum = 548.5 (2 samples)
Flit latency average = 9.82934 (2 samples)
	minimum = 6 (2 samples)
	maximum = 544.5 (2 samples)
Fragmentation average = 0.061143 (2 samples)
	minimum = 0 (2 samples)
	maximum = 425.5 (2 samples)
Injected packet rate average = 0.0129083 (2 samples)
	minimum = 5.91884e-06 (2 samples)
	maximum = 0.0463731 (2 samples)
Accepted packet rate average = 0.0129083 (2 samples)
	minimum = 5.91884e-06 (2 samples)
	maximum = 0.0738446 (2 samples)
Injected flit rate average = 0.044607 (2 samples)
	minimum = 1.88208e-05 (2 samples)
	maximum = 0.201577 (2 samples)
Accepted flit rate average = 0.044607 (2 samples)
	minimum = 1.66922e-05 (2 samples)
	maximum = 0.214019 (2 samples)
Injected packet size average = 3.45567 (2 samples)
Accepted packet size average = 3.45567 (2 samples)
Hops average = 1 (2 samples)
----------------------------END-of-Interconnect-DETAILS-------------------------


gpgpu_simulation_time = 0 days, 7 hrs, 20 min, 54 sec (26454 sec)
gpgpu_simulation_rate = 37768 (inst/sec)
gpgpu_simulation_rate = 506 (cycle/sec)
GPGPU-Sim: synchronize waiting for inactive GPU simulation
GPGPU-Sim API: Stream Manager State
GPGPU-Sim: detected inactive GPU simulation thread
v  =    224.32334900
Lb =     21.34812355
Time (Greeks)   : 17950118.000000 msec

Press ENTER to exit...
