

        *** GPGPU-Sim Simulator Version 3.2.2  [build 0] ***


GPGPU-Sim PTX: simulation mode 0 (can change with PTX_SIM_MODE_FUNC environment variable:
               1=functional simulation only, 0=detailed performance simulator)
GPGPU-Sim: Configuration options:

-network_mode                           1 # Interconnection network mode
-inter_config_file   config_fermi_islip.icnt # Interconnection network config file
-gpgpu_ptx_use_cuobjdump                    1 # Use cuobjdump to extract ptx and sass from binaries
-gpgpu_experimental_lib_support                    0 # Try to extract code from cuda libraries [Broken because of unknown cudaGetExportTable]
-gpgpu_ptx_convert_to_ptxplus                    0 # Convert SASS (native ISA) to ptxplus and run ptxplus
-gpgpu_ptx_force_max_capability                   20 # Force maximum compute capability
-gpgpu_ptx_inst_debug_to_file                    0 # Dump executed instructions' debug information to file
-gpgpu_ptx_inst_debug_file       inst_debug.txt # Executed instructions' debug output file
-gpgpu_ptx_inst_debug_thread_uid                    1 # Thread UID for executed instructions' debug output
-gpgpu_simd_model                       1 # 1 = post-dominator
-gpgpu_shader_core_pipeline          1536:256:32 # shader core pipeline config, i.e., {<nthread>:<warpsize>}
-gpgpu_tex_cache:l1  4:128:24,L:R:m:N:L,F:128:4,128:2 # per-shader L1 texture cache  (READ-ONLY) config  {<nsets>:<bsize>:<assoc>,<rep>:<wr>:<alloc>:<wr_alloc>,<mshr>:<N>:<merge>,<mq>:<rf>}
-gpgpu_const_cache:l1 64:64:2,L:R:f:N:L,A:2:32,4 # per-shader L1 constant memory cache  (READ-ONLY) config  {<nsets>:<bsize>:<assoc>,<rep>:<wr>:<alloc>:<wr_alloc>,<mshr>:<N>:<merge>,<mq>} 
-gpgpu_cache:il1     4:128:4,L:R:f:N:L,A:2:32,4 # shader L1 instruction cache config  {<nsets>:<bsize>:<assoc>,<rep>:<wr>:<alloc>:<wr_alloc>,<mshr>:<N>:<merge>,<mq>} 
-gpgpu_cache:dl1     32:128:4,L:L:m:N:H,A:32:8,8 # per-shader L1 data cache config  {<nsets>:<bsize>:<assoc>,<rep>:<wr>:<alloc>:<wr_alloc>,<mshr>:<N>:<merge>,<mq> | none}
-gpgpu_cache:dl1PrefL1                 none # per-shader L1 data cache config  {<nsets>:<bsize>:<assoc>,<rep>:<wr>:<alloc>:<wr_alloc>,<mshr>:<N>:<merge>,<mq> | none}
-gpgpu_cache:dl1PreShared                 none # per-shader L1 data cache config  {<nsets>:<bsize>:<assoc>,<rep>:<wr>:<alloc>:<wr_alloc>,<mshr>:<N>:<merge>,<mq> | none}
-gmem_skip_L1D                          0 # global memory access skip L1D cache (implements -Xptxas -dlcm=cg, default=no skip)
-gpgpu_perfect_mem                      0 # enable perfect memory mode (no cache miss)
-n_regfile_gating_group                    4 # group of lanes that should be read/written together)
-gpgpu_clock_gated_reg_file                    0 # enable clock gated reg file for power calculations
-gpgpu_clock_gated_lanes                    0 # enable clock gated lanes for power calculations
-gpgpu_shader_registers                32768 # Number of registers per shader core. Limits number of concurrent CTAs. (default 8192)
-gpgpu_shader_cta                       8 # Maximum number of concurrent CTAs in shader (default 8)
-gpgpu_num_cta_barriers                   16 # Maximum number of named barriers per CTA (default 16)
-gpgpu_n_clusters                      15 # number of processing clusters
-gpgpu_n_cores_per_cluster                    1 # number of simd cores per cluster
-gpgpu_n_cluster_ejection_buffer_size                    8 # number of packets in ejection buffer
-gpgpu_n_ldst_response_buffer_size                    2 # number of response packets in ld/st unit ejection buffer
-gpgpu_shmem_size                   16384 # Size of shared memory per shader core (default 16kB)
-gpgpu_shmem_size                   49152 # Size of shared memory per shader core (default 16kB)
-gpgpu_shmem_size_PrefL1                16384 # Size of shared memory per shader core (default 16kB)
-gpgpu_shmem_size_PrefShared                16384 # Size of shared memory per shader core (default 16kB)
-gpgpu_shmem_num_banks                   32 # Number of banks in the shared memory in each shader core (default 16)
-gpgpu_shmem_limited_broadcast                    0 # Limit shared memory to do one broadcast per cycle (default on)
-gpgpu_shmem_warp_parts                    1 # Number of portions a warp is divided into for shared memory bank conflict check 
-gpgpu_warpdistro_shader                   -1 # Specify which shader core to collect the warp size distribution from
-gpgpu_warp_issue_shader                    0 # Specify which shader core to collect the warp issue distribution from
-gpgpu_local_mem_map                    1 # Mapping from local memory space address to simulated GPU physical address space (default = enabled)
-gpgpu_num_reg_banks                   16 # Number of register banks (default = 8)
-gpgpu_reg_bank_use_warp_id                    0 # Use warp ID in mapping registers to banks (default = off)
-gpgpu_operand_collector_num_units_sp                    6 # number of collector units (default = 4)
-gpgpu_operand_collector_num_units_sfu                    8 # number of collector units (default = 4)
-gpgpu_operand_collector_num_units_mem                    2 # number of collector units (default = 2)
-gpgpu_operand_collector_num_units_gen                    0 # number of collector units (default = 0)
-gpgpu_operand_collector_num_in_ports_sp                    2 # number of collector unit in ports (default = 1)
-gpgpu_operand_collector_num_in_ports_sfu                    1 # number of collector unit in ports (default = 1)
-gpgpu_operand_collector_num_in_ports_mem                    1 # number of collector unit in ports (default = 1)
-gpgpu_operand_collector_num_in_ports_gen                    0 # number of collector unit in ports (default = 0)
-gpgpu_operand_collector_num_out_ports_sp                    2 # number of collector unit in ports (default = 1)
-gpgpu_operand_collector_num_out_ports_sfu                    1 # number of collector unit in ports (default = 1)
-gpgpu_operand_collector_num_out_ports_mem                    1 # number of collector unit in ports (default = 1)
-gpgpu_operand_collector_num_out_ports_gen                    0 # number of collector unit in ports (default = 0)
-gpgpu_coalesce_arch                   13 # Coalescing arch (default = 13, anything else is off for now)
-gpgpu_num_sched_per_core                    1 # Number of warp schedulers per core
-gpgpu_max_insn_issue_per_warp                    1 # Max number of instructions that can be issued per warp in one cycle by scheduler
-gpgpu_simt_core_sim_order                    1 # Select the simulation order of cores in a cluster (0=Fix, 1=Round-Robin)
-gpgpu_pipeline_widths        2,1,1,2,1,1,2 # Pipeline widths ID_OC_SP,ID_OC_SFU,ID_OC_MEM,OC_EX_SP,OC_EX_SFU,OC_EX_MEM,EX_WB
-gpgpu_num_sp_units                     2 # Number of SP units (default=1)
-gpgpu_num_sfu_units                    1 # Number of SF units (default=1)
-gpgpu_num_mem_units                    1 # Number if ldst units (default=1) WARNING: not hooked up to anything
-gpgpu_scheduler                      gto # Scheduler configuration: < lrr | gto | two_level_active > If two_level_active:<num_active_warps>:<inner_prioritization>:<outer_prioritization>For complete list of prioritization values see shader.h enum scheduler_prioritization_typeDefault: gto
-gpgpu_dram_scheduler                    1 # 0 = fifo, 1 = FR-FCFS (defaul)
-gpgpu_dram_partition_queues              8:8:8:8 # i2$:$2d:d2$:$2i
-l2_ideal                               0 # Use a ideal L2 cache that always hit
-gpgpu_cache:dl2     64:128:8,L:B:m:W:L,A:32:4,4:0,32 # unified banked L2 data cache config  {<nsets>:<bsize>:<assoc>,<rep>:<wr>:<alloc>:<wr_alloc>,<mshr>:<N>:<merge>,<mq>}
-gpgpu_cache:dl2_texture_only                    0 # L2 cache used for texture only
-gpgpu_n_mem                            6 # number of memory modules (e.g. memory controllers) in gpu
-gpgpu_n_sub_partition_per_mchannel                    2 # number of memory subpartition in each memory module
-gpgpu_n_mem_per_ctrlr                    2 # number of memory chips per memory controller
-gpgpu_memlatency_stat                   14 # track and display latency statistics 0x2 enables MC, 0x4 enables queue logs
-gpgpu_frfcfs_dram_sched_queue_size                   16 # 0 = unlimited (default); # entries per chip
-gpgpu_dram_return_queue_size                  116 # 0 = unlimited (default); # entries per chip
-gpgpu_dram_buswidth                    4 # default = 4 bytes (8 bytes per cycle at DDR)
-gpgpu_dram_burst_length                    8 # Burst length of each DRAM request (default = 4 data bus cycle)
-dram_data_command_freq_ratio                    4 # Frequency ratio between DRAM data bus and command bus (default = 2 times, i.e. DDR)
-gpgpu_dram_timing_opt nbk=16:CCD=2:RRD=6:RCD=12:RAS=28:RP=12:RC=40: CL=12:WL=4:CDLR=5:WR=12:nbkgrp=4:CCDL=3:RTPL=2 # DRAM timing parameters = {nbk:tCCD:tRRD:tRCD:tRAS:tRP:tRC:CL:WL:tCDLR:tWR:nbkgrp:tCCDL:tRTPL}
-rop_latency                          120 # ROP queue latency (default 85)
-dram_latency                         100 # DRAM latency (default 30)
-gpgpu_mem_addr_mapping dramid@8;00000000.00000000.00000000.00000000.0000RRRR.RRRRRRRR.BBBCCCCB.CCSSSSSS # mapping memory address to dram model {dramid@<start bit>;<memory address map>}
-gpgpu_mem_addr_test                    0 # run sweep test to check address mapping for aliased address
-gpgpu_mem_address_mask                    1 # 0 = old addressing mask, 1 = new addressing mask, 2 = new add. mask + flipped bank sel and chip sel bits
-gpuwattch_xml_file  gpuwattch_gtx480.xml # GPUWattch XML file
-power_simulation_enabled                    1 # Turn on power simulator (1=On, 0=Off)
-power_per_cycle_dump                    0 # Dump detailed power output each cycle
-power_trace_enabled                    0 # produce a file for the power trace (1=On, 0=Off)
-power_trace_zlevel                     6 # Compression level of the power trace output log (0=no comp, 9=highest)
-steady_power_levels_enabled                    0 # produce a file for the steady power levels (1=On, 0=Off)
-steady_state_definition                  8:4 # allowed deviation:number of samples
-gpgpu_max_cycle                        0 # terminates gpu simulation early (0 = no limit)
-gpgpu_max_insn                         0 # terminates gpu simulation early (0 = no limit)
-gpgpu_max_cta                          0 # terminates gpu simulation early (0 = no limit)
-gpgpu_runtime_stat                   500 # display runtime statistics such as dram utilization {<freq>:<flag>}
-liveness_message_freq                    1 # Minimum number of seconds between simulation liveness messages (0 = always print)
-gpgpu_flush_l1_cache                    0 # Flush L1 cache at the end of each kernel call
-gpgpu_flush_l2_cache                    0 # Flush L2 cache at the end of each kernel call
-gpgpu_deadlock_detect                    1 # Stop the simulation at deadlock (1=on (default), 0=off)
-gpgpu_ptx_instruction_classification                    0 # if enabled will classify ptx instruction types per kernel (Max 255 kernels now)
-gpgpu_ptx_sim_mode                     0 # Select between Performance (default) or Functional simulation (1)
-gpgpu_clock_domains 700.0:700.0:700.0:924.0 # Clock Domain Frequencies in MhZ {<Core Clock>:<ICNT Clock>:<L2 Clock>:<DRAM Clock>}
-gpgpu_max_concurrent_kernel                    8 # maximum kernels that can run concurrently on GPU
-gpgpu_cflog_interval                    0 # Interval between each snapshot in control flow logger
-visualizer_enabled                     0 # Turn on visualizer output (1=On, 0=Off)
-visualizer_outputfile                 NULL # Specifies the output log file for visualizer
-visualizer_zlevel                      6 # Compression level of the visualizer output log (0=no comp, 9=highest)
-trace_enabled                          0 # Turn on traces
-trace_components                    none # comma seperated list of traces to enable. Complete list found in trace_streams.tup. Default none
-trace_sampling_core                    0 # The core which is printed using CORE_DPRINTF. Default 0
-trace_sampling_memory_partition                   -1 # The memory partition which is printed using MEMPART_DPRINTF. Default -1 (i.e. all)
-enable_ptx_file_line_stats                    1 # Turn on PTX source line statistic profiling. (1 = On)
-ptx_line_stats_filename gpgpu_inst_stats.txt # Output file for PTX source line statistics.
-save_embedded_ptx                      0 # saves ptx files embedded in binary as <n>.ptx
-keep                                   0 # keep intermediate files created by GPGPU-Sim when interfacing with external programs
-gpgpu_ptx_save_converted_ptxplus                    0 # Saved converted ptxplus to a file
-ptx_opcode_latency_int         4,13,4,5,145 # Opcode latencies for integers <ADD,MAX,MUL,MAD,DIV>Default 1,1,19,25,145
-ptx_opcode_latency_fp          4,13,4,5,39 # Opcode latencies for single precision floating points <ADD,MAX,MUL,MAD,DIV>Default 1,1,1,1,30
-ptx_opcode_latency_dp         8,19,8,8,330 # Opcode latencies for double precision floating points <ADD,MAX,MUL,MAD,DIV>Default 8,8,8,8,335
-ptx_opcode_initiation_int            1,2,2,1,8 # Opcode initiation intervals for integers <ADD,MAX,MUL,MAD,DIV>Default 1,1,4,4,32
-ptx_opcode_initiation_fp            1,2,1,1,4 # Opcode initiation intervals for single precision floating points <ADD,MAX,MUL,MAD,DIV>Default 1,1,1,1,5
-ptx_opcode_initiation_dp         8,16,8,8,130 # Opcode initiation intervals for double precision floating points <ADD,MAX,MUL,MAD,DIV>Default 8,8,8,8,130
ESHA: SIMD Width was found to be : 32
DRAM Timing Options:
nbk                                    16 # number of banks
CCD                                     2 # column to column delay
RRD                                     6 # minimal delay between activation of rows in different banks
RCD                                    12 # row to column delay
RAS                                    28 # time needed to activate row
RP                                     12 # time needed to precharge (deactivate) row
RC                                     40 # row cycle time
CDLR                                    5 # switching from write to read (changes tWTR)
WR                                     12 # last data-in to row precharge
CL                                     12 # CAS latency
WL                                      4 # Write latency
nbkgrp                                  4 # number of bank groups
CCDL                                    3 # column to column delay between accesses to different bank groups
RTPL                                    2 # read to precharge delay between accesses to different bank groups
Total number of memory sub partition = 12
addr_dec_mask[CHIP]  = 0000000000000000 	high:64 low:0
addr_dec_mask[BK]    = 000000000000e100 	high:16 low:8
addr_dec_mask[ROW]   = 000000000fff0000 	high:28 low:16
addr_dec_mask[COL]   = 0000000000001eff 	high:13 low:0
addr_dec_mask[BURST] = 000000000000003f 	high:6 low:0
sub_partition_id_mask = 0000000000000100
GPGPU-Sim uArch: clock freqs: 700000000.000000:700000000.000000:700000000.000000:924000000.000000
GPGPU-Sim uArch: clock periods: 0.00000000142857142857:0.00000000142857142857:0.00000000142857142857:0.00000000108225108225
ESHA_CHANGED: in shader config simd is  32 
*** Initializing Memory Statistics ***
GPGPU-Sim uArch: interconnect node map (shaderID+MemID to icntID)
GPGPU-Sim uArch: Memory nodes ID start from index: 15
GPGPU-Sim uArch:    0   1   2   3   4
GPGPU-Sim uArch:    5   6   7   8   9
GPGPU-Sim uArch:   10  11  12  13  14
GPGPU-Sim uArch:   15  16  17  18  19
GPGPU-Sim uArch:   20  21  22  23  24
GPGPU-Sim uArch:   25  26
GPGPU-Sim uArch: interconnect node reverse map (icntID to shaderID+MemID)
GPGPU-Sim uArch: Memory nodes start from ID: 15
GPGPU-Sim uArch:    0   1   2   3   4
GPGPU-Sim uArch:    5   6   7   8   9
GPGPU-Sim uArch:   10  11  12  13  14
GPGPU-Sim uArch:   15  16  17  18  19
GPGPU-Sim uArch:   20  21  22  23  24
GPGPU-Sim uArch:   25  26
36731beff5187ff21689d20a58a6b791  /home/kishore/project_source/gpu_class_proj/gpgpusim-benchmarks-master/bin/release/LIB
GPGPU-Sim uArch: performance model initialization complete.
GPGPU-Sim PTX: __cudaRegisterFatBinary, fat_cubin_handle = 1, filename=libor.cu
self exe links to: /home/kishore/project_source/gpu_class_proj/gpgpusim-benchmarks-master/bin/release/LIB
Running md5sum using "md5sum /home/kishore/project_source/gpu_class_proj/gpgpusim-benchmarks-master/bin/release/LIB "
Running cuobjdump using "$CUDA_INSTALL_PATH/bin/cuobjdump -ptx -elf -sass /home/kishore/project_source/gpu_class_proj/gpgpusim-benchmarks-master/bin/release/LIB > _cuobjdump_complete_output_gcLEus"
Parsing file _cuobjdump_complete_output_gcLEus
######### cuobjdump parser ########
## Adding new section PTX
Adding ptx filename: _cuobjdump_1.ptx
Adding arch: sm_10
Adding identifier: libor.cu
## Adding new section ELF
Adding arch: sm_10
Adding identifier: libor.cu
## Adding new section ELF
Adding arch: sm_20
Adding identifier: libor.cu
## Adding new section PTX
Adding ptx filename: _cuobjdump_2.ptx
Adding arch: sm_20
Adding identifier: libor.cu
Done parsing!!!
GPGPU-Sim PTX: __cudaRegisterFunction _Z29Pathcalc_Portfolio_KernelGPU2Pf : hostFun 0x0x403b30, fat_cubin_handle = 1
GPGPU-Sim PTX: allocating stack frame region for .param "__cudaparmf1__Z9path_calcPfS_" from 0x0 to 0x8
GPGPU-Sim PTX: allocating stack frame region for .param "__cudaparmf2__Z9path_calcPfS_" from 0x8 to 0x10
GPGPU-Sim PTX: allocating stack frame region for .param "__cudaparmf1__Z12path_calc_b1PfS_S_" from 0x0 to 0x8
GPGPU-Sim PTX: allocating stack frame region for .param "__cudaparmf2__Z12path_calc_b1PfS_S_" from 0x8 to 0x10
GPGPU-Sim PTX: allocating stack frame region for .param "__cudaparmf3__Z12path_calc_b1PfS_S_" from 0x10 to 0x18
GPGPU-Sim PTX: allocating stack frame region for .param "__cudaparmf1__Z12path_calc_b2PfS_S_" from 0x0 to 0x8
GPGPU-Sim PTX: allocating stack frame region for .param "__cudaparmf2__Z12path_calc_b2PfS_S_" from 0x8 to 0x10
GPGPU-Sim PTX: allocating stack frame region for .param "__cudaparmf3__Z12path_calc_b2PfS_S_" from 0x10 to 0x18
GPGPU-Sim PTX: allocating stack frame region for .param "__cudaretf__Z11portfolio_bPfS_" from 0x0 to 0x4
GPGPU-Sim PTX: allocating stack frame region for .param "__cudaparmf1__Z11portfolio_bPfS_" from 0x4 to 0xc
GPGPU-Sim PTX: allocating stack frame region for .param "__cudaparmf2__Z11portfolio_bPfS_" from 0xc to 0x14
GPGPU-Sim PTX: allocating stack frame region for .param "__cudaretf__Z9portfolioPf" from 0x0 to 0x4
GPGPU-Sim PTX: allocating stack frame region for .param "__cudaparmf1__Z9portfolioPf" from 0x4 to 0xc
GPGPU-Sim PTX: allocating constant region for "N" from 0x100 to 0x104 (global memory space) 1
GPGPU-Sim PTX: allocating constant region for "Nmat" from 0x104 to 0x108 (global memory space) 2
GPGPU-Sim PTX: allocating constant region for "delta" from 0x108 to 0x10c (global memory space) 3
GPGPU-Sim PTX: allocating constant region for "lambda" from 0x180 to 0x2c0 (global memory space) 4
GPGPU-Sim PTX: instruction assembly for function '_Z9path_calcPfS_'...   done.
GPGPU-Sim PTX: finding reconvergence points for '_Z9path_calcPfS_'...
GPGPU-Sim PTX: Finding dominators for '_Z9path_calcPfS_'...
GPGPU-Sim PTX: Finding immediate dominators for '_Z9path_calcPfS_'...
GPGPU-Sim PTX: Finding postdominators for '_Z9path_calcPfS_'...
GPGPU-Sim PTX: Finding immediate postdominators for '_Z9path_calcPfS_'...
GPGPU-Sim PTX: pre-decoding instructions for '_Z9path_calcPfS_'...
GPGPU-Sim PTX: reconvergence points for _Z9path_calcPfS_...
GPGPU-Sim PTX:  1 (potential) branch divergence @  PC=0x038 (_1.ptx:81) @%p1 bra $Lt_0_2306;
GPGPU-Sim PTX:    immediate post dominator      @  PC=0x218 (_1.ptx:153) ret;
GPGPU-Sim PTX:  2 (potential) branch divergence @  PC=0x0a8 (_1.ptx:99) @%p2 bra $Lt_0_3074;
GPGPU-Sim PTX:    immediate post dominator      @  PC=0x1f8 (_1.ptx:147) mov.s32 %r5, %r7;
GPGPU-Sim PTX:  3 (potential) branch divergence @  PC=0x1f0 (_1.ptx:145) @%p3 bra $Lt_0_3586;
GPGPU-Sim PTX:    immediate post dominator      @  PC=0x1f8 (_1.ptx:147) mov.s32 %r5, %r7;
GPGPU-Sim PTX:  4 (potential) branch divergence @  PC=0x210 (_1.ptx:150) @%p4 bra $Lt_0_2818;
GPGPU-Sim PTX:    immediate post dominator      @  PC=0x218 (_1.ptx:153) ret;
GPGPU-Sim PTX: ... end of reconvergence points for _Z9path_calcPfS_
GPGPU-Sim PTX: ... done pre-decoding instructions for '_Z9path_calcPfS_'.
GPGPU-Sim PTX: instruction assembly for function '_Z12path_calc_b1PfS_S_'...   done.
GPGPU-Sim PTX: finding reconvergence points for '_Z12path_calc_b1PfS_S_'...
GPGPU-Sim PTX: Finding dominators for '_Z12path_calc_b1PfS_S_'...
GPGPU-Sim PTX: Finding immediate dominators for '_Z12path_calc_b1PfS_S_'...
GPGPU-Sim PTX: Finding postdominators for '_Z12path_calc_b1PfS_S_'...
GPGPU-Sim PTX: Finding immediate postdominators for '_Z12path_calc_b1PfS_S_'...
GPGPU-Sim PTX: pre-decoding instructions for '_Z12path_calc_b1PfS_S_'...
GPGPU-Sim PTX: reconvergence points for _Z12path_calc_b1PfS_S_...
GPGPU-Sim PTX:  1 (potential) branch divergence @  PC=0x268 (_1.ptx:175) @%p1 bra $Lt_1_3330;
GPGPU-Sim PTX:    immediate post dominator      @  PC=0x2d0 (_1.ptx:192) ld.const.s32 %r6, [Nmat];
GPGPU-Sim PTX:  2 (potential) branch divergence @  PC=0x2c8 (_1.ptx:190) @%p2 bra $Lt_1_3842;
GPGPU-Sim PTX:    immediate post dominator      @  PC=0x2d0 (_1.ptx:192) ld.const.s32 %r6, [Nmat];
GPGPU-Sim PTX:  3 (potential) branch divergence @  PC=0x2e8 (_1.ptx:195) @%p3 bra $Lt_1_4354;
GPGPU-Sim PTX:    immediate post dominator      @  PC=0x4f8 (_1.ptx:274) ret;
GPGPU-Sim PTX:  4 (potential) branch divergence @  PC=0x350 (_1.ptx:212) @%p4 bra $Lt_1_5122;
GPGPU-Sim PTX:    immediate post dominator      @  PC=0x4d8 (_1.ptx:268) mov.s32 %r9, %r11;
GPGPU-Sim PTX:  5 (potential) branch divergence @  PC=0x4d0 (_1.ptx:266) @%p5 bra $Lt_1_5634;
GPGPU-Sim PTX:    immediate post dominator      @  PC=0x4d8 (_1.ptx:268) mov.s32 %r9, %r11;
GPGPU-Sim PTX:  6 (potential) branch divergence @  PC=0x4f0 (_1.ptx:271) @%p6 bra $Lt_1_4866;
GPGPU-Sim PTX:    immediate post dominator      @  PC=0x4f8 (_1.ptx:274) ret;
GPGPU-Sim PTX: ... end of reconvergence points for _Z12path_calc_b1PfS_S_
GPGPU-Sim PTX: ... done pre-decoding instructions for '_Z12path_calc_b1PfS_S_'.
GPGPU-Sim PTX: instruction assembly for function '_Z12path_calc_b2PfS_S_'...   done.
GPGPU-Sim PTX: finding reconvergence points for '_Z12path_calc_b2PfS_S_'...
GPGPU-Sim PTX: Finding dominators for '_Z12path_calc_b2PfS_S_'...
GPGPU-Sim PTX: Finding immediate dominators for '_Z12path_calc_b2PfS_S_'...
GPGPU-Sim PTX: Finding postdominators for '_Z12path_calc_b2PfS_S_'...
GPGPU-Sim PTX: Finding immediate postdominators for '_Z12path_calc_b2PfS_S_'...
GPGPU-Sim PTX: pre-decoding instructions for '_Z12path_calc_b2PfS_S_'...
GPGPU-Sim PTX: reconvergence points for _Z12path_calc_b2PfS_S_...
GPGPU-Sim PTX:  1 (potential) branch divergence @  PC=0x548 (_1.ptx:297) @%p1 bra $Lt_2_2306;
GPGPU-Sim PTX:    immediate post dominator      @  PC=0x730 (_1.ptx:368) ret;
GPGPU-Sim PTX:  2 (potential) branch divergence @  PC=0x580 (_1.ptx:306) @%p2 bra $Lt_2_3074;
GPGPU-Sim PTX:    immediate post dominator      @  PC=0x710 (_1.ptx:362) sub.s32 %r3, %r3, 1;
GPGPU-Sim PTX:  3 (potential) branch divergence @  PC=0x708 (_1.ptx:360) @%p3 bra $Lt_2_3586;
GPGPU-Sim PTX:    immediate post dominator      @  PC=0x710 (_1.ptx:362) sub.s32 %r3, %r3, 1;
GPGPU-Sim PTX:  4 (potential) branch divergence @  PC=0x728 (_1.ptx:365) @%p4 bra $Lt_2_2818;
GPGPU-Sim PTX:    immediate post dominator      @  PC=0x730 (_1.ptx:368) ret;
GPGPU-Sim PTX: ... end of reconvergence points for _Z12path_calc_b2PfS_S_
GPGPU-Sim PTX: ... done pre-decoding instructions for '_Z12path_calc_b2PfS_S_'.
GPGPU-Sim PTX: allocating constant region for "Nopt" from 0x2c0 to 0x2c4 (global memory space) 5
GPGPU-Sim PTX: allocating constant region for "maturities" from 0x300 to 0x33c (global memory space) 6
GPGPU-Sim PTX: allocating constant region for "swaprates" from 0x380 to 0x3bc (global memory space) 7
GPGPU-Sim PTX: allocating stack frame region for .local "__cuda___cuda_local_var_34164_9_non_const_B_16440" from 0x80 to 0x120
GPGPU-Sim PTX: allocating stack frame region for .local "__cuda___cuda_local_var_34164_16_non_const_S_176600" from 0x180 to 0x220
GPGPU-Sim PTX: allocating stack frame region for .local "__cuda___cuda_local_var_34164_23_non_const_B_b_336760" from 0x280 to 0x320
GPGPU-Sim PTX: allocating stack frame region for .local "__cuda___cuda_local_var_34164_32_non_const_S_b_496920" from 0x380 to 0x420
GPGPU-Sim PTX: instruction assembly for function '_Z11portfolio_bPfS_'...   done.
GPGPU-Sim PTX: finding reconvergence points for '_Z11portfolio_bPfS_'...
GPGPU-Sim PTX: Finding dominators for '_Z11portfolio_bPfS_'...
GPGPU-Sim PTX: Finding immediate dominators for '_Z11portfolio_bPfS_'...
GPGPU-Sim PTX: Finding postdominators for '_Z11portfolio_bPfS_'...
GPGPU-Sim PTX: Finding immediate postdominators for '_Z11portfolio_bPfS_'...
GPGPU-Sim PTX: pre-decoding instructions for '_Z11portfolio_bPfS_'...
GPGPU-Sim PTX: reconvergence points for _Z11portfolio_bPfS_...
GPGPU-Sim PTX:  1 (potential) branch divergence @  PC=0x780 (_1.ptx:397) @!%p1 bra $Lt_3_8962;
GPGPU-Sim PTX:    immediate post dominator      @  PC=0x868 (_1.ptx:433) @!%p1 bra $Lt_3_9986;
GPGPU-Sim PTX:  2 (potential) branch divergence @  PC=0x860 (_1.ptx:431) @%p2 bra $Lt_3_9474;
GPGPU-Sim PTX:    immediate post dominator      @  PC=0x868 (_1.ptx:433) @!%p1 bra $Lt_3_9986;
GPGPU-Sim PTX:  3 (potential) branch divergence @  PC=0x868 (_1.ptx:433) @!%p1 bra $Lt_3_9986;
GPGPU-Sim PTX:    immediate post dominator      @  PC=0x8e0 (_1.ptx:453) ld.const.s32 %r11, [Nopt];
GPGPU-Sim PTX:  4 (potential) branch divergence @  PC=0x8d8 (_1.ptx:451) @%p3 bra $Lt_3_10498;
GPGPU-Sim PTX:    immediate post dominator      @  PC=0x8e0 (_1.ptx:453) ld.const.s32 %r11, [Nopt];
GPGPU-Sim PTX:  5 (potential) branch divergence @  PC=0x8f8 (_1.ptx:456) @%p4 bra $Lt_3_17666;
GPGPU-Sim PTX:    immediate post dominator      @  PC=0xa80 (_1.ptx:515) sub.s32 %r17, %r3, 1;
GPGPU-Sim PTX:  6 (potential) branch divergence @  PC=0x9c8 (_1.ptx:485) @!%p5 bra $Lt_3_11778;
GPGPU-Sim PTX:    immediate post dominator      @  PC=0xa30 (_1.ptx:502) add.s32 %r14, %r14, 1;
GPGPU-Sim PTX:  7 (potential) branch divergence @  PC=0xa50 (_1.ptx:506) @%p6 bra $Lt_3_11522;
GPGPU-Sim PTX:    immediate post dominator      @  PC=0xa58 (_1.ptx:507) bra.uni $Lt_3_11010;
GPGPU-Sim PTX:  8 (potential) branch divergence @  PC=0xa58 (_1.ptx:507) bra.uni $Lt_3_11010;
GPGPU-Sim PTX:    immediate post dominator      @  PC=0xa80 (_1.ptx:515) sub.s32 %r17, %r3, 1;
GPGPU-Sim PTX:  9 (potential) branch divergence @  PC=0xa98 (_1.ptx:518) @%p7 bra $Lt_3_12546;
GPGPU-Sim PTX:    immediate post dominator      @  PC=0xc60 (_1.ptx:583) mov.s32 %r22, 0;
GPGPU-Sim PTX: 10 (potential) branch divergence @  PC=0xba0 (_1.ptx:555) @%p8 bra $Lt_3_13314;
GPGPU-Sim PTX:    immediate post dominator      @  PC=0xc20 (_1.ptx:574) sub.s32 %r6, %r6, 1;
GPGPU-Sim PTX: 11 (potential) branch divergence @  PC=0xc58 (_1.ptx:581) @%p9 bra $Lt_3_13058;
GPGPU-Sim PTX:    immediate post dominator      @  PC=0xc60 (_1.ptx:583) mov.s32 %r22, 0;
GPGPU-Sim PTX: 12 (potential) branch divergence @  PC=0xc70 (_1.ptx:585) @!%p10 bra $Lt_3_18178;
GPGPU-Sim PTX:    immediate post dominator      @  PC=0xd18 (_1.ptx:612) mul.f32 %f10, %f10, %f3;
GPGPU-Sim PTX: 13 (potential) branch divergence @  PC=0xd00 (_1.ptx:606) @%p11 bra $Lt_3_14594;
GPGPU-Sim PTX:    immediate post dominator      @  PC=0xd08 (_1.ptx:607) bra.uni $Lt_3_14082;
GPGPU-Sim PTX: 14 (potential) branch divergence @  PC=0xd08 (_1.ptx:607) bra.uni $Lt_3_14082;
GPGPU-Sim PTX:    immediate post dominator      @  PC=0xd18 (_1.ptx:612) mul.f32 %f10, %f10, %f3;
GPGPU-Sim PTX: 15 (potential) branch divergence @  PC=0xd20 (_1.ptx:613) @!%p10 bra $Lt_3_15106;
GPGPU-Sim PTX:    immediate post dominator      @  PC=0xdd8 (_1.ptx:641) mov.s32 %r14, %r1;
GPGPU-Sim PTX: 16 (potential) branch divergence @  PC=0xdd0 (_1.ptx:638) @%p12 bra $Lt_3_15618;
GPGPU-Sim PTX:    immediate post dominator      @  PC=0xdd8 (_1.ptx:641) mov.s32 %r14, %r1;
GPGPU-Sim PTX: 17 (potential) branch divergence @  PC=0xde8 (_1.ptx:643) @%p13 bra $Lt_3_16130;
GPGPU-Sim PTX:    immediate post dominator      @  PC=0xe50 (_1.ptx:661) mov.f32 %f54, %f10;
GPGPU-Sim PTX: 18 (potential) branch divergence @  PC=0xe48 (_1.ptx:658) @%p14 bra $Lt_3_16642;
GPGPU-Sim PTX:    immediate post dominator      @  PC=0xe50 (_1.ptx:661) mov.f32 %f54, %f10;
GPGPU-Sim PTX: ... end of reconvergence points for _Z11portfolio_bPfS_
GPGPU-Sim PTX: ... done pre-decoding instructions for '_Z11portfolio_bPfS_'.
GPGPU-Sim PTX: allocating stack frame region for .local "__cuda___cuda_local_var_34227_27_non_const_B_01080" from 0x80 to 0x120
GPGPU-Sim PTX: allocating stack frame region for .local "__cuda___cuda_local_var_34227_34_non_const_S_1601240" from 0x180 to 0x220
GPGPU-Sim PTX: instruction assembly for function '_Z9portfolioPf'...   done.
GPGPU-Sim PTX: finding reconvergence points for '_Z9portfolioPf'...
GPGPU-Sim PTX: Finding dominators for '_Z9portfolioPf'...
GPGPU-Sim PTX: Finding immediate dominators for '_Z9portfolioPf'...
GPGPU-Sim PTX: Finding postdominators for '_Z9portfolioPf'...
GPGPU-Sim PTX: Finding immediate postdominators for '_Z9portfolioPf'...
GPGPU-Sim PTX: pre-decoding instructions for '_Z9portfolioPf'...
GPGPU-Sim PTX: reconvergence points for _Z9portfolioPf...
GPGPU-Sim PTX:  1 (potential) branch divergence @  PC=0xe90 (_1.ptx:684) @%p1 bra $Lt_4_4098;
GPGPU-Sim PTX:    immediate post dominator      @  PC=0xf90 (_1.ptx:723) cvta.local.u64 %rd3, __cuda___cuda_local_var_34227_27_non_const_B_01080;
GPGPU-Sim PTX:  2 (potential) branch divergence @  PC=0xf88 (_1.ptx:721) @%p2 bra $Lt_4_4610;
GPGPU-Sim PTX:    immediate post dominator      @  PC=0xf90 (_1.ptx:723) cvta.local.u64 %rd3, __cuda___cuda_local_var_34227_27_non_const_B_01080;
GPGPU-Sim PTX:  3 (potential) branch divergence @  PC=0xfb8 (_1.ptx:728) @%p3 bra $Lt_4_7426;
GPGPU-Sim PTX:    immediate post dominator      @  PC=0x10d0 (_1.ptx:769) mov.u32 %r13, 0;
GPGPU-Sim PTX:  4 (potential) branch divergence @  PC=0x10b8 (_1.ptx:764) @%p5 bra $Lt_4_5634;
GPGPU-Sim PTX:    immediate post dominator      @  PC=0x10c0 (_1.ptx:765) bra.uni $Lt_4_5122;
GPGPU-Sim PTX:  5 (potential) branch divergence @  PC=0x10c0 (_1.ptx:765) bra.uni $Lt_4_5122;
GPGPU-Sim PTX:    immediate post dominator      @  PC=0x10d0 (_1.ptx:769) mov.u32 %r13, 0;
GPGPU-Sim PTX:  6 (potential) branch divergence @  PC=0x10e0 (_1.ptx:771) @%p6 bra $Lt_4_7682;
GPGPU-Sim PTX:    immediate post dominator      @  PC=0x1188 (_1.ptx:798) mul.f32 %f16, %f6, %f3;
GPGPU-Sim PTX:  7 (potential) branch divergence @  PC=0x1170 (_1.ptx:792) @%p7 bra $Lt_4_6658;
GPGPU-Sim PTX:    immediate post dominator      @  PC=0x1178 (_1.ptx:793) bra.uni $Lt_4_6146;
GPGPU-Sim PTX:  8 (potential) branch divergence @  PC=0x1178 (_1.ptx:793) bra.uni $Lt_4_6146;
GPGPU-Sim PTX:    immediate post dominator      @  PC=0x1188 (_1.ptx:798) mul.f32 %f16, %f6, %f3;
GPGPU-Sim PTX: ... end of reconvergence points for _Z9portfolioPf
GPGPU-Sim PTX: ... done pre-decoding instructions for '_Z9portfolioPf'.
GPGPU-Sim PTX: allocating stack frame region for .local "__cuda___cuda_local_var_34164_32_non_const_S_b_161416" from 0x0 to 0xa0
GPGPU-Sim PTX: allocating stack frame region for .local "__cuda___cuda_local_var_34164_16_non_const_S_1761576" from 0x100 to 0x1a0
GPGPU-Sim PTX: allocating stack frame region for .local "__cuda___cuda_local_var_34265_16_non_const_L2_3361736" from 0x200 to 0x3540
GPGPU-Sim PTX: allocating stack frame region for .local "__cuda___cuda_local_var_34164_23_non_const_B_b_1345614856" from 0x3580 to 0x3620
GPGPU-Sim PTX: allocating stack frame region for .local "__cuda___cuda_local_var_34164_9_non_const_B_1361615016" from 0x3680 to 0x3720
GPGPU-Sim PTX: allocating stack frame region for .local "__cuda___cuda_local_var_34265_26_non_const_z_1377615176" from 0x3780 to 0x38c0
GPGPU-Sim PTX: allocating stack frame region for .local "__cuda___cuda_local_var_34265_9_non_const_L_1409615496" from 0x3900 to 0x3a40
GPGPU-Sim PTX: instruction assembly for function '_Z28Pathcalc_Portfolio_KernelGPUPfS_'...   done.
GPGPU-Sim PTX: finding reconvergence points for '_Z28Pathcalc_Portfolio_KernelGPUPfS_'...
GPGPU-Sim PTX: Finding dominators for '_Z28Pathcalc_Portfolio_KernelGPUPfS_'...
GPGPU-Sim PTX: Finding immediate dominators for '_Z28Pathcalc_Portfolio_KernelGPUPfS_'...
GPGPU-Sim PTX: Finding postdominators for '_Z28Pathcalc_Portfolio_KernelGPUPfS_'...
GPGPU-Sim PTX: Finding immediate postdominators for '_Z28Pathcalc_Portfolio_KernelGPUPfS_'...
GPGPU-Sim PTX: pre-decoding instructions for '_Z28Pathcalc_Portfolio_KernelGPUPfS_'...
GPGPU-Sim PTX: reconvergence points for _Z28Pathcalc_Portfolio_KernelGPUPfS_...
GPGPU-Sim PTX:  1 (potential) branch divergence @  PC=0x11e0 (_1.ptx:831) @%p1 bra $Lt_5_16130;
GPGPU-Sim PTX:    immediate post dominator      @  PC=0x1e48 (_1.ptx:1310) exit;
GPGPU-Sim PTX:  2 (potential) branch divergence @  PC=0x1320 (_1.ptx:873) @!%p2 bra $Lt_5_17922;
GPGPU-Sim PTX:    immediate post dominator      @  PC=0x1400 (_1.ptx:911) @!%p3 bra $Lt_5_18946;
GPGPU-Sim PTX:  3 (potential) branch divergence @  PC=0x1390 (_1.ptx:891) @%p9 bra $Lt_5_17410;
GPGPU-Sim PTX:    immediate post dominator      @  PC=0x1398 (_1.ptx:894) @!%p2 bra $Lt_5_17922;
GPGPU-Sim PTX:  4 (potential) branch divergence @  PC=0x1398 (_1.ptx:894) @!%p2 bra $Lt_5_17922;
GPGPU-Sim PTX:    immediate post dominator      @  PC=0x1400 (_1.ptx:911) @!%p3 bra $Lt_5_18946;
GPGPU-Sim PTX:  5 (potential) branch divergence @  PC=0x13f8 (_1.ptx:909) @%p10 bra $Lt_5_18434;
GPGPU-Sim PTX:    immediate post dominator      @  PC=0x1400 (_1.ptx:911) @!%p3 bra $Lt_5_18946;
GPGPU-Sim PTX:  6 (potential) branch divergence @  PC=0x1400 (_1.ptx:911) @!%p3 bra $Lt_5_18946;
GPGPU-Sim PTX:    immediate post dominator      @  PC=0x1610 (_1.ptx:989) @!%p6 bra $Lt_5_22018;
GPGPU-Sim PTX:  7 (potential) branch divergence @  PC=0x1438 (_1.ptx:921) @%p11 bra $Lt_5_19714;
GPGPU-Sim PTX:    immediate post dominator      @  PC=0x15f8 (_1.ptx:984) mov.s32 %r29, %r31;
GPGPU-Sim PTX:  8 (potential) branch divergence @  PC=0x15f0 (_1.ptx:982) @%p12 bra $Lt_5_20226;
GPGPU-Sim PTX:    immediate post dominator      @  PC=0x15f8 (_1.ptx:984) mov.s32 %r29, %r31;
GPGPU-Sim PTX:  9 (potential) branch divergence @  PC=0x1608 (_1.ptx:986) @%p13 bra $Lt_5_19458;
GPGPU-Sim PTX:    immediate post dominator      @  PC=0x1610 (_1.ptx:989) @!%p6 bra $Lt_5_22018;
GPGPU-Sim PTX: 10 (potential) branch divergence @  PC=0x1610 (_1.ptx:989) @!%p6 bra $Lt_5_22018;
GPGPU-Sim PTX:    immediate post dominator      @  PC=0x1770 (_1.ptx:1045) @!%p4 bra $Lt_5_33282;
GPGPU-Sim PTX: 11 (potential) branch divergence @  PC=0x16f0 (_1.ptx:1023) @%p14 bra $Lt_5_21506;
GPGPU-Sim PTX:    immediate post dominator      @  PC=0x16f8 (_1.ptx:1025) @!%p6 bra $Lt_5_22018;
GPGPU-Sim PTX: 12 (potential) branch divergence @  PC=0x16f8 (_1.ptx:1025) @!%p6 bra $Lt_5_22018;
GPGPU-Sim PTX:    immediate post dominator      @  PC=0x1770 (_1.ptx:1045) @!%p4 bra $Lt_5_33282;
GPGPU-Sim PTX: 13 (potential) branch divergence @  PC=0x1768 (_1.ptx:1043) @%p15 bra $Lt_5_22530;
GPGPU-Sim PTX:    immediate post dominator      @  PC=0x1770 (_1.ptx:1045) @!%p4 bra $Lt_5_33282;
GPGPU-Sim PTX: 14 (potential) branch divergence @  PC=0x1770 (_1.ptx:1045) @!%p4 bra $Lt_5_33282;
GPGPU-Sim PTX:    immediate post dominator      @  PC=0x18c0 (_1.ptx:1096) @!%p8 bra $Lt_5_24578;
GPGPU-Sim PTX: 15 (potential) branch divergence @  PC=0x1820 (_1.ptx:1070) @!%p16 bra $Lt_5_23810;
GPGPU-Sim PTX:    immediate post dominator      @  PC=0x1888 (_1.ptx:1087) add.s32 %r46, %r46, 1;
GPGPU-Sim PTX: 16 (potential) branch divergence @  PC=0x18a8 (_1.ptx:1091) @%p17 bra $Lt_5_23554;
GPGPU-Sim PTX:    immediate post dominator      @  PC=0x18b0 (_1.ptx:1092) bra.uni $Lt_5_23042;
GPGPU-Sim PTX: 17 (potential) branch divergence @  PC=0x18b0 (_1.ptx:1092) bra.uni $Lt_5_23042;
GPGPU-Sim PTX:    immediate post dominator      @  PC=0x18c0 (_1.ptx:1096) @!%p8 bra $Lt_5_24578;
GPGPU-Sim PTX: 18 (potential) branch divergence @  PC=0x18c0 (_1.ptx:1096) @!%p8 bra $Lt_5_24578;
GPGPU-Sim PTX:    immediate post dominator      @  PC=0x1a58 (_1.ptx:1155) @!%p3 bra $Lt_5_33794;
GPGPU-Sim PTX: 19 (potential) branch divergence @  PC=0x19b8 (_1.ptx:1131) @%p18 bra $Lt_5_25346;
GPGPU-Sim PTX:    immediate post dominator      @  PC=0x1a20 (_1.ptx:1147) sub.s32 %r40, %r40, 1;
GPGPU-Sim PTX: 20 (potential) branch divergence @  PC=0x1a50 (_1.ptx:1153) @%p19 bra $Lt_5_25090;
GPGPU-Sim PTX:    immediate post dominator      @  PC=0x1a58 (_1.ptx:1155) @!%p3 bra $Lt_5_33794;
GPGPU-Sim PTX: 21 (potential) branch divergence @  PC=0x1a58 (_1.ptx:1155) @!%p3 bra $Lt_5_33794;
GPGPU-Sim PTX:    immediate post dominator      @  PC=0x1b00 (_1.ptx:1182) mul.f32 %f30, %f30, %f24;
GPGPU-Sim PTX: 22 (potential) branch divergence @  PC=0x1ae8 (_1.ptx:1176) @%p20 bra $Lt_5_26626;
GPGPU-Sim PTX:    immediate post dominator      @  PC=0x1af0 (_1.ptx:1177) bra.uni $Lt_5_26114;
GPGPU-Sim PTX: 23 (potential) branch divergence @  PC=0x1af0 (_1.ptx:1177) bra.uni $Lt_5_26114;
GPGPU-Sim PTX:    immediate post dominator      @  PC=0x1b00 (_1.ptx:1182) mul.f32 %f30, %f30, %f24;
GPGPU-Sim PTX: 24 (potential) branch divergence @  PC=0x1b08 (_1.ptx:1183) @!%p3 bra $Lt_5_27138;
GPGPU-Sim PTX:    immediate post dominator      @  PC=0x1bb0 (_1.ptx:1209) mov.s32 %r46, %r10;
GPGPU-Sim PTX: 25 (potential) branch divergence @  PC=0x1ba8 (_1.ptx:1206) @%p21 bra $Lt_5_27650;
GPGPU-Sim PTX:    immediate post dominator      @  PC=0x1bb0 (_1.ptx:1209) mov.s32 %r46, %r10;
GPGPU-Sim PTX: 26 (potential) branch divergence @  PC=0x1bb8 (_1.ptx:1210) @!%p5 bra $Lt_5_28162;
GPGPU-Sim PTX:    immediate post dominator      @  PC=0x1c20 (_1.ptx:1228) st.global.f32 [%rd5+0], %f30;
GPGPU-Sim PTX: 27 (potential) branch divergence @  PC=0x1c18 (_1.ptx:1225) @%p22 bra $Lt_5_28674;
GPGPU-Sim PTX:    immediate post dominator      @  PC=0x1c20 (_1.ptx:1228) st.global.f32 [%rd5+0], %f30;
GPGPU-Sim PTX: 28 (potential) branch divergence @  PC=0x1c30 (_1.ptx:1231) @!%p7 bra $Lt_5_29186;
GPGPU-Sim PTX:    immediate post dominator      @  PC=0x1e08 (_1.ptx:1300) ld.local.f32 %f85, [__cuda___cuda_local_var_34265_9_non_const_L_1409615496+316];
GPGPU-Sim PTX: 29 (potential) branch divergence @  PC=0x1c58 (_1.ptx:1238) @%p23 bra $Lt_5_29954;
GPGPU-Sim PTX:    immediate post dominator      @  PC=0x1de8 (_1.ptx:1294) sub.s32 %r57, %r57, 1;
GPGPU-Sim PTX: 30 (potential) branch divergence @  PC=0x1de0 (_1.ptx:1292) @%p24 bra $Lt_5_30466;
GPGPU-Sim PTX:    immediate post dominator      @  PC=0x1de8 (_1.ptx:1294) sub.s32 %r57, %r57, 1;
GPGPU-Sim PTX: 31 (potential) branch divergence @  PC=0x1e00 (_1.ptx:1297) @%p25 bra $Lt_5_29698;
GPGPU-Sim PTX:    immediate post dominator      @  PC=0x1e08 (_1.ptx:1300) ld.local.f32 %f85, [__cuda___cuda_local_var_34265_9_non_const_L_1409615496+316];
GPGPU-Sim PTX: 32 (potential) branch divergence @  PC=0x1e40 (_1.ptx:1307) @%p26 bra $Lt_5_16642;
GPGPU-Sim PTX:    immediate post dominator      @  PC=0x1e48 (_1.ptx:1310) exit;
GPGPU-Sim PTX: ... end of reconvergence points for _Z28Pathcalc_Portfolio_KernelGPUPfS_
GPGPU-Sim PTX: ... done pre-decoding instructions for '_Z28Pathcalc_Portfolio_KernelGPUPfS_'.
GPGPU-Sim PTX: allocating stack frame region for .local "__cuda___cuda_local_var_34227_27_non_const_B_1615824" from 0x0 to 0xa0
GPGPU-Sim PTX: allocating stack frame region for .local "__cuda___cuda_local_var_34291_9_non_const_L_17615984" from 0x100 to 0x240
GPGPU-Sim PTX: allocating stack frame region for .local "__cuda___cuda_local_var_34227_34_non_const_S_49616304" from 0x280 to 0x320
GPGPU-Sim PTX: allocating stack frame region for .local "__cuda___cuda_local_var_34291_16_non_const_z_65616464" from 0x380 to 0x4c0
GPGPU-Sim PTX: instruction assembly for function '_Z29Pathcalc_Portfolio_KernelGPU2Pf'...   done.
GPGPU-Sim PTX: finding reconvergence points for '_Z29Pathcalc_Portfolio_KernelGPU2Pf'...
GPGPU-Sim PTX: Finding dominators for '_Z29Pathcalc_Portfolio_KernelGPU2Pf'...
GPGPU-Sim PTX: Finding immediate dominators for '_Z29Pathcalc_Portfolio_KernelGPU2Pf'...
GPGPU-Sim PTX: Finding postdominators for '_Z29Pathcalc_Portfolio_KernelGPU2Pf'...
GPGPU-Sim PTX: Finding immediate postdominators for '_Z29Pathcalc_Portfolio_KernelGPU2Pf'...
GPGPU-Sim PTX: pre-decoding instructions for '_Z29Pathcalc_Portfolio_KernelGPU2Pf'...
GPGPU-Sim PTX: reconvergence points for _Z29Pathcalc_Portfolio_KernelGPU2Pf...
GPGPU-Sim PTX:  1 (potential) branch divergence @  PC=0x1e90 (_1.ptx:1337) @%p1 bra $Lt_6_8194;
GPGPU-Sim PTX:    immediate post dominator      @  PC=0x2498 (_1.ptx:1571) exit;
GPGPU-Sim PTX:  2 (potential) branch divergence @  PC=0x1f60 (_1.ptx:1365) @!%p2 bra $Lt_6_8962;
GPGPU-Sim PTX:    immediate post dominator      @  PC=0x1fd8 (_1.ptx:1386) @!%p3 bra $Lt_6_9986;
GPGPU-Sim PTX:  3 (potential) branch divergence @  PC=0x1fd0 (_1.ptx:1383) @%p6 bra $Lt_6_9474;
GPGPU-Sim PTX:    immediate post dominator      @  PC=0x1fd8 (_1.ptx:1386) @!%p3 bra $Lt_6_9986;
GPGPU-Sim PTX:  4 (potential) branch divergence @  PC=0x1fd8 (_1.ptx:1386) @!%p3 bra $Lt_6_9986;
GPGPU-Sim PTX:    immediate post dominator      @  PC=0x21b0 (_1.ptx:1456) @!%p4 bra $Lt_6_12034;
GPGPU-Sim PTX:  5 (potential) branch divergence @  PC=0x2010 (_1.ptx:1396) @%p7 bra $Lt_6_10754;
GPGPU-Sim PTX:    immediate post dominator      @  PC=0x2198 (_1.ptx:1451) mov.s32 %r20, %r22;
GPGPU-Sim PTX:  6 (potential) branch divergence @  PC=0x2190 (_1.ptx:1449) @%p8 bra $Lt_6_11266;
GPGPU-Sim PTX:    immediate post dominator      @  PC=0x2198 (_1.ptx:1451) mov.s32 %r20, %r22;
GPGPU-Sim PTX:  7 (potential) branch divergence @  PC=0x21a8 (_1.ptx:1453) @%p9 bra $Lt_6_10498;
GPGPU-Sim PTX:    immediate post dominator      @  PC=0x21b0 (_1.ptx:1456) @!%p4 bra $Lt_6_12034;
GPGPU-Sim PTX:  8 (potential) branch divergence @  PC=0x21b0 (_1.ptx:1456) @!%p4 bra $Lt_6_12034;
GPGPU-Sim PTX:    immediate post dominator      @  PC=0x22a0 (_1.ptx:1493) @!%p5 bra $Lt_6_16642;
GPGPU-Sim PTX:  9 (potential) branch divergence @  PC=0x2298 (_1.ptx:1491) @%p10 bra $Lt_6_12546;
GPGPU-Sim PTX:    immediate post dominator      @  PC=0x22a0 (_1.ptx:1493) @!%p5 bra $Lt_6_16642;
GPGPU-Sim PTX: 10 (potential) branch divergence @  PC=0x22a0 (_1.ptx:1493) @!%p5 bra $Lt_6_16642;
GPGPU-Sim PTX:    immediate post dominator      @  PC=0x23b8 (_1.ptx:1534) @!%p3 bra $Lt_6_16898;
GPGPU-Sim PTX: 11 (potential) branch divergence @  PC=0x23a0 (_1.ptx:1529) @%p12 bra $Lt_6_13570;
GPGPU-Sim PTX:    immediate post dominator      @  PC=0x23a8 (_1.ptx:1530) bra.uni $Lt_6_13058;
GPGPU-Sim PTX: 12 (potential) branch divergence @  PC=0x23a8 (_1.ptx:1530) bra.uni $Lt_6_13058;
GPGPU-Sim PTX:    immediate post dominator      @  PC=0x23b8 (_1.ptx:1534) @!%p3 bra $Lt_6_16898;
GPGPU-Sim PTX: 13 (potential) branch divergence @  PC=0x23b8 (_1.ptx:1534) @!%p3 bra $Lt_6_16898;
GPGPU-Sim PTX:    immediate post dominator      @  PC=0x2460 (_1.ptx:1561) mul.f32 %f25, %f25, %f22;
GPGPU-Sim PTX: 14 (potential) branch divergence @  PC=0x2448 (_1.ptx:1555) @%p13 bra $Lt_6_14594;
GPGPU-Sim PTX:    immediate post dominator      @  PC=0x2450 (_1.ptx:1556) bra.uni $Lt_6_14082;
GPGPU-Sim PTX: 15 (potential) branch divergence @  PC=0x2450 (_1.ptx:1556) bra.uni $Lt_6_14082;
GPGPU-Sim PTX:    immediate post dominator      @  PC=0x2460 (_1.ptx:1561) mul.f32 %f25, %f25, %f22;
GPGPU-Sim PTX: 16 (potential) branch divergence @  PC=0x2490 (_1.ptx:1568) @%p14 bra $Lt_6_8706;
GPGPU-Sim PTX:    immediate post dominator      @  PC=0x2498 (_1.ptx:1571) exit;
GPGPU-Sim PTX: ... end of reconvergence points for _Z29Pathcalc_Portfolio_KernelGPU2Pf
GPGPU-Sim PTX: ... done pre-decoding instructions for '_Z29Pathcalc_Portfolio_KernelGPU2Pf'.
GPGPU-Sim PTX: finished parsing EMBEDDED .ptx file _1.ptx
Adding _cuobjdump_2.ptx with cubin handle 1
GPGPU-Sim PTX: extracting embedded .ptx to temporary file "_ptx_y2YwO1"
Running: cat _ptx_y2YwO1 | sed 's/.version 1.5/.version 1.4/' | sed 's/, texmode_independent//' | sed 's/\(\.extern \.const\[1\] .b8 \w\+\)\[\]/\1\[1\]/' | sed 's/const\[.\]/const\[0\]/g' > _ptx2_wIor8A
GPGPU-Sim PTX: generating ptxinfo using "$CUDA_INSTALL_PATH/bin/ptxas --gpu-name=sm_20 -v _ptx2_wIor8A --output-file  /dev/null 2> _ptx_y2YwO1info"
GPGPU-Sim PTX: Kernel '_Z29Pathcalc_Portfolio_KernelGPU2Pf' : regs=33, lmem=4, smem=0, cmem=508
GPGPU-Sim PTX: Kernel '_Z28Pathcalc_Portfolio_KernelGPUPfS_' : regs=41, lmem=4, smem=0, cmem=516
GPGPU-Sim PTX: removing ptxinfo using "rm -f _ptx_y2YwO1 _ptx2_wIor8A _ptx_y2YwO1info"
GPGPU-Sim PTX: loading globals with explicit initializers... 
GPGPU-Sim PTX: finished loading globals (0 bytes total).
GPGPU-Sim PTX: loading constants with explicit initializers...  done.
GPGPU-Sim PTX: __cudaRegisterFunction _Z28Pathcalc_Portfolio_KernelGPUPfS_ : hostFun 0x0x403ba0, fat_cubin_handle = 1
GPGPU-Sim PTX: __cudaRegisterVar: hostVar = 0x62d448; deviceAddress = N; deviceName = N
GPGPU-Sim PTX: __cudaRegisterVar: Registering const memory space of 4 bytes
GPGPU-Sim PTX registering constant N (4 bytes) to name mapping
GPGPU-Sim PTX: __cudaRegisterVar: hostVar = 0x62d44c; deviceAddress = Nmat; deviceName = Nmat
GPGPU-Sim PTX: __cudaRegisterVar: Registering const memory space of 4 bytes
GPGPU-Sim PTX registering constant Nmat (4 bytes) to name mapping
GPGPU-Sim PTX: __cudaRegisterVar: hostVar = 0x62d450; deviceAddress = Nopt; deviceName = Nopt
GPGPU-Sim PTX: __cudaRegisterVar: Registering const memory space of 4 bytes
GPGPU-Sim PTX registering constant Nopt (4 bytes) to name mapping
GPGPU-Sim PTX: __cudaRegisterVar: hostVar = 0x62d460; deviceAddress = maturities; deviceName = maturities
GPGPU-Sim PTX: __cudaRegisterVar: Registering const memory space of 60 bytes
GPGPU-Sim PTX registering constant maturities (60 bytes) to name mapping
GPGPU-Sim PTX: __cudaRegisterVar: hostVar = 0x62d49c; deviceAddress = delta; deviceName = delta
GPGPU-Sim PTX: __cudaRegisterVar: Registering const memory space of 4 bytes
GPGPU-Sim PTX registering constant delta (4 bytes) to name mapping
GPGPU-Sim PTX: __cudaRegisterVar: hostVar = 0x62d4a0; deviceAddress = swaprates; deviceName = swaprates
GPGPU-Sim PTX: __cudaRegisterVar: Registering const memory space of 60 bytes
GPGPU-Sim PTX registering constant swaprates (60 bytes) to name mapping
GPGPU-Sim PTX: __cudaRegisterVar: hostVar = 0x62d4e0; deviceAddress = lambda; deviceName = lambda
GPGPU-Sim PTX: __cudaRegisterVar: Registering const memory space of 320 bytes
GPGPU-Sim PTX registering constant lambda (320 bytes) to name mapping
GPGPU-Sim PTX: cudaMemcpyToSymbol: symbol = 0x62d448
GPGPU-Sim PTX: starting gpgpu_ptx_sim_memcpy_symbol with hostVar 0x0x62d448
GPGPU-Sim PTX: gpgpu_ptx_sim_memcpy_symbol: Found PTX symbol w/ hostVar=0x62d448
GPGPU-Sim PTX: gpgpu_ptx_sim_memcpy_symbol: copying const memory 4 bytes  to  symbol N+0 @0x100 ...
GPGPU-Sim PTX: cudaMemcpyToSymbol: symbol = 0x62d44c
GPGPU-Sim PTX: starting gpgpu_ptx_sim_memcpy_symbol with hostVar 0x0x62d44c
GPGPU-Sim PTX: gpgpu_ptx_sim_memcpy_symbol: Found PTX symbol w/ hostVar=0x62d44c
GPGPU-Sim PTX: gpgpu_ptx_sim_memcpy_symbol: copying const memory 4 bytes  to  symbol Nmat+0 @0x104 ...
GPGPU-Sim PTX: cudaMemcpyToSymbol: symbol = 0x62d450
GPGPU-Sim PTX: starting gpgpu_ptx_sim_memcpy_symbol with hostVar 0x0x62d450
GPGPU-Sim PTX: gpgpu_ptx_sim_memcpy_symbol: Found PTX symbol w/ hostVar=0x62d450
GPGPU-Sim PTX: gpgpu_ptx_sim_memcpy_symbol: copying const memory 4 bytes  to  symbol Nopt+0 @0x2c0 ...
GPGPU-Sim PTX: cudaMemcpyToSymbol: symbol = 0x62d49c
GPGPU-Sim PTX: starting gpgpu_ptx_sim_memcpy_symbol with hostVar 0x0x62d49c
GPGPU-Sim PTX: gpgpu_ptx_sim_memcpy_symbol: Found PTX symbol w/ hostVar=0x62d49c
GPGPU-Sim PTX: gpgpu_ptx_sim_memcpy_symbol: copying const memory 4 bytes  to  symbol delta+0 @0x108 ...
GPGPU-Sim PTX: cudaMemcpyToSymbol: symbol = 0x62d460
GPGPU-Sim PTX: starting gpgpu_ptx_sim_memcpy_symbol with hostVar 0x0x62d460
GPGPU-Sim PTX: gpgpu_ptx_sim_memcpy_symbol: Found PTX symbol w/ hostVar=0x62d460
GPGPU-Sim PTX: gpgpu_ptx_sim_memcpy_symbol: copying const memory 60 bytes  to  symbol maturities+0 @0x300 ...
GPGPU-Sim PTX: cudaMemcpyToSymbol: symbol = 0x62d4a0
GPGPU-Sim PTX: starting gpgpu_ptx_sim_memcpy_symbol with hostVar 0x0x62d4a0
GPGPU-Sim PTX: gpgpu_ptx_sim_memcpy_symbol: Found PTX symbol w/ hostVar=0x62d4a0
GPGPU-Sim PTX: gpgpu_ptx_sim_memcpy_symbol: copying const memory 60 bytes  to  symbol swaprates+0 @0x380 ...
GPGPU-Sim PTX: cudaMemcpyToSymbol: symbol = 0x62d4e0
GPGPU-Sim PTX: starting gpgpu_ptx_sim_memcpy_symbol with hostVar 0x0x62d4e0
GPGPU-Sim PTX: gpgpu_ptx_sim_memcpy_symbol: Found PTX symbol w/ hostVar=0x62d4e0
GPGPU-Sim PTX: gpgpu_ptx_sim_memcpy_symbol: copying const memory 320 bytes  to  symbol lambda+0 @0x180 ...
GPGPU-Sim: synchronize waiting for inactive GPU simulation
GPGPU-Sim API: Stream Manager State
GPGPU-Sim: detected inactive GPU simulation thread

GPGPU-Sim PTX: cudaLaunch for 0x0x403b30 (mode=performance simulation) on stream 0
GPGPU-Sim PTX: pushing kernel '_Z29Pathcalc_Portfolio_KernelGPU2Pf' to stream 0, gridDim= (64,1,1) blockDim = (64,1,1) 
kernel '_Z29Pathcalc_Portfolio_KernelGPU2Pf' transfer to GPU hardware scheduler
GPGPU-Sim uArch: Shader 1 bind to kernel 1 '_Z29Pathcalc_Portfolio_KernelGPU2Pf'
GPGPU-Sim uArch: CTA/core = 3, limited by: regs
GPGPU-Sim uArch: core:  1, cta: 0 initialized @(1,0)
GPGPU-Sim uArch: Shader 2 bind to kernel 1 '_Z29Pathcalc_Portfolio_KernelGPU2Pf'
GPGPU-Sim uArch: core:  2, cta: 0 initialized @(1,0)
GPGPU-Sim uArch: Shader 3 bind to kernel 1 '_Z29Pathcalc_Portfolio_KernelGPU2Pf'
GPGPU-Sim uArch: core:  3, cta: 0 initialized @(1,0)
GPGPU-Sim uArch: Shader 4 bind to kernel 1 '_Z29Pathcalc_Portfolio_KernelGPU2Pf'
GPGPU-Sim uArch: core:  4, cta: 0 initialized @(1,0)
GPGPU-Sim uArch: Shader 5 bind to kernel 1 '_Z29Pathcalc_Portfolio_KernelGPU2Pf'
GPGPU-Sim uArch: core:  5, cta: 0 initialized @(1,0)
GPGPU-Sim uArch: Shader 6 bind to kernel 1 '_Z29Pathcalc_Portfolio_KernelGPU2Pf'
GPGPU-Sim uArch: core:  6, cta: 0 initialized @(1,0)
GPGPU-Sim uArch: Shader 7 bind to kernel 1 '_Z29Pathcalc_Portfolio_KernelGPU2Pf'
GPGPU-Sim uArch: core:  7, cta: 0 initialized @(1,0)
GPGPU-Sim uArch: Shader 8 bind to kernel 1 '_Z29Pathcalc_Portfolio_KernelGPU2Pf'
GPGPU-Sim uArch: core:  8, cta: 0 initialized @(1,0)
GPGPU-Sim uArch: Shader 9 bind to kernel 1 '_Z29Pathcalc_Portfolio_KernelGPU2Pf'
GPGPU-Sim uArch: core:  9, cta: 0 initialized @(1,0)
GPGPU-Sim uArch: Shader 10 bind to kernel 1 '_Z29Pathcalc_Portfolio_KernelGPU2Pf'
GPGPU-Sim uArch: core: 10, cta: 0 initialized @(1,0)
GPGPU-Sim uArch: Shader 11 bind to kernel 1 '_Z29Pathcalc_Portfolio_KernelGPU2Pf'
GPGPU-Sim uArch: core: 11, cta: 0 initialized @(1,0)
GPGPU-Sim uArch: Shader 12 bind to kernel 1 '_Z29Pathcalc_Portfolio_KernelGPU2Pf'
GPGPU-Sim uArch: core: 12, cta: 0 initialized @(1,0)
GPGPU-Sim uArch: Shader 13 bind to kernel 1 '_Z29Pathcalc_Portfolio_KernelGPU2Pf'
GPGPU-Sim uArch: core: 13, cta: 0 initialized @(1,0)
GPGPU-Sim uArch: Shader 14 bind to kernel 1 '_Z29Pathcalc_Portfolio_KernelGPU2Pf'
GPGPU-Sim uArch: core: 14, cta: 0 initialized @(1,0)
GPGPU-Sim uArch: Shader 0 bind to kernel 1 '_Z29Pathcalc_Portfolio_KernelGPU2Pf'
GPGPU-Sim uArch: core:  0, cta: 0 initialized @(1,0)
GPGPU-Sim uArch: core:  1, cta: 1 initialized @(2,0)
GPGPU-Sim uArch: core:  2, cta: 1 initialized @(2,0)
GPGPU-Sim uArch: core:  3, cta: 1 initialized @(2,0)
GPGPU-Sim uArch: core:  4, cta: 1 initialized @(2,0)
GPGPU-Sim uArch: core:  5, cta: 1 initialized @(2,0)
GPGPU-Sim uArch: core:  6, cta: 1 initialized @(2,0)
GPGPU-Sim uArch: core:  7, cta: 1 initialized @(2,0)
GPGPU-Sim uArch: core:  8, cta: 1 initialized @(2,0)
GPGPU-Sim uArch: core:  9, cta: 1 initialized @(2,0)
GPGPU-Sim uArch: core: 10, cta: 1 initialized @(2,0)
GPGPU-Sim uArch: core: 11, cta: 1 initialized @(2,0)
GPGPU-Sim uArch: core: 12, cta: 1 initialized @(2,0)
GPGPU-Sim uArch: core: 13, cta: 1 initialized @(2,0)
GPGPU-Sim uArch: core: 14, cta: 1 initialized @(2,0)
GPGPU-Sim uArch: core:  0, cta: 1 initialized @(2,0)
GPGPU-Sim uArch: core:  1, cta: 2 initialized @(3,0)
GPGPU-Sim uArch: core:  2, cta: 2 initialized @(3,0)
GPGPU-Sim uArch: core:  3, cta: 2 initialized @(3,0)
GPGPU-Sim uArch: core:  4, cta: 2 initialized @(3,0)
GPGPU-Sim uArch: core:  5, cta: 2 initialized @(3,0)
GPGPU-Sim uArch: core:  6, cta: 2 initialized @(3,0)
GPGPU-Sim uArch: core:  7, cta: 2 initialized @(3,0)
GPGPU-Sim uArch: core:  8, cta: 2 initialized @(3,0)
GPGPU-Sim uArch: core:  9, cta: 2 initialized @(3,0)
GPGPU-Sim uArch: core: 10, cta: 2 initialized @(3,0)
GPGPU-Sim uArch: core: 11, cta: 2 initialized @(3,0)
GPGPU-Sim uArch: core: 12, cta: 2 initialized @(3,0)
GPGPU-Sim uArch: core: 13, cta: 2 initialized @(3,0)
GPGPU-Sim uArch: core: 14, cta: 2 initialized @(3,0)
GPGPU-Sim uArch: core:  0, cta: 2 initialized @(3,0)
GPGPU-Sim uArch: cycles simulated: 500  inst.: 17280 (ipc=34.6) sim_rate=17280 (inst/sec) elapsed = 0:0:00:01 / Wed May 13 00:26:41 2015
GPGPU-Sim uArch: cycles simulated: 1000  inst.: 46080 (ipc=46.1) sim_rate=15360 (inst/sec) elapsed = 0:0:00:03 / Wed May 13 00:26:43 2015
GPGPU-Sim PTX: 100000 instructions simulated : ctaid=(24,0,0) tid=(31,0,0)
GPGPU-Sim uArch: cycles simulated: 2000  inst.: 107264 (ipc=53.6) sim_rate=21452 (inst/sec) elapsed = 0:0:00:05 / Wed May 13 00:26:45 2015
GPGPU-Sim uArch: cycles simulated: 2500  inst.: 178816 (ipc=71.5) sim_rate=25545 (inst/sec) elapsed = 0:0:00:07 / Wed May 13 00:26:47 2015
GPGPU-Sim PTX: 200000 instructions simulated : ctaid=(33,0,0) tid=(63,0,0)
GPGPU-Sim uArch: cycles simulated: 3000  inst.: 194816 (ipc=64.9) sim_rate=24352 (inst/sec) elapsed = 0:0:00:08 / Wed May 13 00:26:48 2015
GPGPU-Sim uArch: cycles simulated: 3500  inst.: 209408 (ipc=59.8) sim_rate=23267 (inst/sec) elapsed = 0:0:00:09 / Wed May 13 00:26:49 2015
GPGPU-Sim uArch: cycles simulated: 4000  inst.: 224192 (ipc=56.0) sim_rate=20381 (inst/sec) elapsed = 0:0:00:11 / Wed May 13 00:26:51 2015
GPGPU-Sim uArch: cycles simulated: 4500  inst.: 238592 (ipc=53.0) sim_rate=19882 (inst/sec) elapsed = 0:0:00:12 / Wed May 13 00:26:52 2015
GPGPU-Sim uArch: cycles simulated: 5000  inst.: 256320 (ipc=51.3) sim_rate=19716 (inst/sec) elapsed = 0:0:00:13 / Wed May 13 00:26:53 2015
GPGPU-Sim uArch: cycles simulated: 5500  inst.: 272192 (ipc=49.5) sim_rate=18146 (inst/sec) elapsed = 0:0:00:15 / Wed May 13 00:26:55 2015
GPGPU-Sim PTX: 300000 instructions simulated : ctaid=(33,0,0) tid=(31,0,0)
GPGPU-Sim uArch: cycles simulated: 6000  inst.: 290432 (ipc=48.4) sim_rate=18152 (inst/sec) elapsed = 0:0:00:16 / Wed May 13 00:26:56 2015
GPGPU-Sim uArch: cycles simulated: 6500  inst.: 308864 (ipc=47.5) sim_rate=18168 (inst/sec) elapsed = 0:0:00:17 / Wed May 13 00:26:57 2015
GPGPU-Sim uArch: cycles simulated: 7000  inst.: 329152 (ipc=47.0) sim_rate=17323 (inst/sec) elapsed = 0:0:00:19 / Wed May 13 00:26:59 2015
GPGPU-Sim uArch: cycles simulated: 7500  inst.: 346496 (ipc=46.2) sim_rate=17324 (inst/sec) elapsed = 0:0:00:20 / Wed May 13 00:27:00 2015
GPGPU-Sim uArch: cycles simulated: 8000  inst.: 364736 (ipc=45.6) sim_rate=17368 (inst/sec) elapsed = 0:0:00:21 / Wed May 13 00:27:01 2015
GPGPU-Sim uArch: cycles simulated: 8500  inst.: 381952 (ipc=44.9) sim_rate=16606 (inst/sec) elapsed = 0:0:00:23 / Wed May 13 00:27:03 2015
GPGPU-Sim PTX: 400000 instructions simulated : ctaid=(4,0,0) tid=(63,0,0)
GPGPU-Sim uArch: cycles simulated: 9000  inst.: 399872 (ipc=44.4) sim_rate=16661 (inst/sec) elapsed = 0:0:00:24 / Wed May 13 00:27:04 2015
GPGPU-Sim uArch: cycles simulated: 9500  inst.: 415936 (ipc=43.8) sim_rate=16637 (inst/sec) elapsed = 0:0:00:25 / Wed May 13 00:27:05 2015
GPGPU-Sim uArch: cycles simulated: 10000  inst.: 433280 (ipc=43.3) sim_rate=16047 (inst/sec) elapsed = 0:0:00:27 / Wed May 13 00:27:07 2015
GPGPU-Sim uArch: cycles simulated: 10500  inst.: 450624 (ipc=42.9) sim_rate=16093 (inst/sec) elapsed = 0:0:00:28 / Wed May 13 00:27:08 2015
GPGPU-Sim uArch: cycles simulated: 11000  inst.: 468608 (ipc=42.6) sim_rate=16158 (inst/sec) elapsed = 0:0:00:29 / Wed May 13 00:27:09 2015
GPGPU-Sim uArch: cycles simulated: 11500  inst.: 486336 (ipc=42.3) sim_rate=15688 (inst/sec) elapsed = 0:0:00:31 / Wed May 13 00:27:11 2015
GPGPU-Sim PTX: 500000 instructions simulated : ctaid=(27,0,0) tid=(31,0,0)
GPGPU-Sim uArch: cycles simulated: 12000  inst.: 504384 (ipc=42.0) sim_rate=15762 (inst/sec) elapsed = 0:0:00:32 / Wed May 13 00:27:12 2015
GPGPU-Sim uArch: cycles simulated: 12500  inst.: 521280 (ipc=41.7) sim_rate=15796 (inst/sec) elapsed = 0:0:00:33 / Wed May 13 00:27:13 2015
GPGPU-Sim uArch: cycles simulated: 13000  inst.: 539520 (ipc=41.5) sim_rate=15414 (inst/sec) elapsed = 0:0:00:35 / Wed May 13 00:27:15 2015
GPGPU-Sim uArch: cycles simulated: 13500  inst.: 556608 (ipc=41.2) sim_rate=15461 (inst/sec) elapsed = 0:0:00:36 / Wed May 13 00:27:16 2015
GPGPU-Sim uArch: cycles simulated: 14000  inst.: 575488 (ipc=41.1) sim_rate=15553 (inst/sec) elapsed = 0:0:00:37 / Wed May 13 00:27:17 2015
GPGPU-Sim PTX: 600000 instructions simulated : ctaid=(30,0,0) tid=(63,0,0)
GPGPU-Sim uArch: cycles simulated: 14500  inst.: 594240 (ipc=41.0) sim_rate=15236 (inst/sec) elapsed = 0:0:00:39 / Wed May 13 00:27:19 2015
GPGPU-Sim uArch: cycles simulated: 15000  inst.: 612672 (ipc=40.8) sim_rate=15316 (inst/sec) elapsed = 0:0:00:40 / Wed May 13 00:27:20 2015
GPGPU-Sim uArch: cycles simulated: 15500  inst.: 630144 (ipc=40.7) sim_rate=15369 (inst/sec) elapsed = 0:0:00:41 / Wed May 13 00:27:21 2015
GPGPU-Sim uArch: cycles simulated: 16000  inst.: 648000 (ipc=40.5) sim_rate=15069 (inst/sec) elapsed = 0:0:00:43 / Wed May 13 00:27:23 2015
GPGPU-Sim uArch: cycles simulated: 16500  inst.: 664576 (ipc=40.3) sim_rate=15104 (inst/sec) elapsed = 0:0:00:44 / Wed May 13 00:27:24 2015
GPGPU-Sim uArch: cycles simulated: 17000  inst.: 680256 (ipc=40.0) sim_rate=15116 (inst/sec) elapsed = 0:0:00:45 / Wed May 13 00:27:25 2015
GPGPU-Sim PTX: 700000 instructions simulated : ctaid=(32,0,0) tid=(31,0,0)
GPGPU-Sim uArch: cycles simulated: 17500  inst.: 696832 (ipc=39.8) sim_rate=15148 (inst/sec) elapsed = 0:0:00:46 / Wed May 13 00:27:26 2015
GPGPU-Sim uArch: cycles simulated: 18000  inst.: 713920 (ipc=39.7) sim_rate=14873 (inst/sec) elapsed = 0:0:00:48 / Wed May 13 00:27:28 2015
GPGPU-Sim uArch: cycles simulated: 18500  inst.: 731136 (ipc=39.5) sim_rate=14921 (inst/sec) elapsed = 0:0:00:49 / Wed May 13 00:27:29 2015
GPGPU-Sim uArch: cycles simulated: 19000  inst.: 749120 (ipc=39.4) sim_rate=14982 (inst/sec) elapsed = 0:0:00:50 / Wed May 13 00:27:30 2015
GPGPU-Sim uArch: cycles simulated: 19500  inst.: 769280 (ipc=39.5) sim_rate=14793 (inst/sec) elapsed = 0:0:00:52 / Wed May 13 00:27:32 2015
GPGPU-Sim uArch: cycles simulated: 20000  inst.: 787712 (ipc=39.4) sim_rate=14862 (inst/sec) elapsed = 0:0:00:53 / Wed May 13 00:27:33 2015
GPGPU-Sim PTX: 800000 instructions simulated : ctaid=(4,0,0) tid=(63,0,0)
GPGPU-Sim uArch: cycles simulated: 20500  inst.: 806016 (ipc=39.3) sim_rate=14926 (inst/sec) elapsed = 0:0:00:54 / Wed May 13 00:27:34 2015
GPGPU-Sim uArch: cycles simulated: 21000  inst.: 825344 (ipc=39.3) sim_rate=15006 (inst/sec) elapsed = 0:0:00:55 / Wed May 13 00:27:35 2015
GPGPU-Sim uArch: cycles simulated: 21500  inst.: 834048 (ipc=38.8) sim_rate=14632 (inst/sec) elapsed = 0:0:00:57 / Wed May 13 00:27:37 2015
GPGPU-Sim uArch: cycles simulated: 22000  inst.: 858560 (ipc=39.0) sim_rate=14802 (inst/sec) elapsed = 0:0:00:58 / Wed May 13 00:27:38 2015
GPGPU-Sim uArch: cycles simulated: 22500  inst.: 879872 (ipc=39.1) sim_rate=14913 (inst/sec) elapsed = 0:0:00:59 / Wed May 13 00:27:39 2015
GPGPU-Sim PTX: 900000 instructions simulated : ctaid=(1,0,0) tid=(31,0,0)
GPGPU-Sim uArch: cycles simulated: 23000  inst.: 897344 (ipc=39.0) sim_rate=14710 (inst/sec) elapsed = 0:0:01:01 / Wed May 13 00:27:41 2015
GPGPU-Sim uArch: cycles simulated: 23500  inst.: 918464 (ipc=39.1) sim_rate=14813 (inst/sec) elapsed = 0:0:01:02 / Wed May 13 00:27:42 2015
GPGPU-Sim uArch: cycles simulated: 24000  inst.: 936832 (ipc=39.0) sim_rate=14870 (inst/sec) elapsed = 0:0:01:03 / Wed May 13 00:27:43 2015
GPGPU-Sim uArch: cycles simulated: 24500  inst.: 955264 (ipc=39.0) sim_rate=14696 (inst/sec) elapsed = 0:0:01:05 / Wed May 13 00:27:45 2015
GPGPU-Sim uArch: cycles simulated: 25000  inst.: 971776 (ipc=38.9) sim_rate=14723 (inst/sec) elapsed = 0:0:01:06 / Wed May 13 00:27:46 2015
GPGPU-Sim PTX: 1000000 instructions simulated : ctaid=(34,0,0) tid=(63,0,0)
GPGPU-Sim uArch: cycles simulated: 25500  inst.: 995200 (ipc=39.0) sim_rate=14853 (inst/sec) elapsed = 0:0:01:07 / Wed May 13 00:27:47 2015
GPGPU-Sim uArch: cycles simulated: 26000  inst.: 1014528 (ipc=39.0) sim_rate=14703 (inst/sec) elapsed = 0:0:01:09 / Wed May 13 00:27:49 2015
GPGPU-Sim uArch: cycles simulated: 26500  inst.: 1035904 (ipc=39.1) sim_rate=14798 (inst/sec) elapsed = 0:0:01:10 / Wed May 13 00:27:50 2015
GPGPU-Sim uArch: cycles simulated: 27000  inst.: 1057152 (ipc=39.2) sim_rate=14889 (inst/sec) elapsed = 0:0:01:11 / Wed May 13 00:27:51 2015
GPGPU-Sim uArch: cycles simulated: 27500  inst.: 1083712 (ipc=39.4) sim_rate=14845 (inst/sec) elapsed = 0:0:01:13 / Wed May 13 00:27:53 2015
GPGPU-Sim PTX: 1100000 instructions simulated : ctaid=(18,0,0) tid=(31,0,0)
GPGPU-Sim uArch: cycles simulated: 28000  inst.: 1110208 (ipc=39.7) sim_rate=15002 (inst/sec) elapsed = 0:0:01:14 / Wed May 13 00:27:54 2015
GPGPU-Sim uArch: cycles simulated: 28500  inst.: 1136128 (ipc=39.9) sim_rate=14949 (inst/sec) elapsed = 0:0:01:16 / Wed May 13 00:27:56 2015
GPGPU-Sim uArch: cycles simulated: 29000  inst.: 1164672 (ipc=40.2) sim_rate=15125 (inst/sec) elapsed = 0:0:01:17 / Wed May 13 00:27:57 2015
GPGPU-Sim PTX: 1200000 instructions simulated : ctaid=(34,0,0) tid=(63,0,0)
GPGPU-Sim uArch: cycles simulated: 29500  inst.: 1186752 (ipc=40.2) sim_rate=15022 (inst/sec) elapsed = 0:0:01:19 / Wed May 13 00:27:59 2015
GPGPU-Sim uArch: cycles simulated: 30000  inst.: 1212096 (ipc=40.4) sim_rate=15151 (inst/sec) elapsed = 0:0:01:20 / Wed May 13 00:28:00 2015
GPGPU-Sim uArch: cycles simulated: 30500  inst.: 1235584 (ipc=40.5) sim_rate=15254 (inst/sec) elapsed = 0:0:01:21 / Wed May 13 00:28:01 2015
GPGPU-Sim uArch: cycles simulated: 31000  inst.: 1257984 (ipc=40.6) sim_rate=15341 (inst/sec) elapsed = 0:0:01:22 / Wed May 13 00:28:02 2015
GPGPU-Sim uArch: cycles simulated: 31500  inst.: 1281728 (ipc=40.7) sim_rate=15442 (inst/sec) elapsed = 0:0:01:23 / Wed May 13 00:28:03 2015
GPGPU-Sim PTX: 1300000 instructions simulated : ctaid=(24,0,0) tid=(31,0,0)
GPGPU-Sim uArch: cycles simulated: 32000  inst.: 1306304 (ipc=40.8) sim_rate=15551 (inst/sec) elapsed = 0:0:01:24 / Wed May 13 00:28:04 2015
GPGPU-Sim uArch: cycles simulated: 32500  inst.: 1334336 (ipc=41.1) sim_rate=15698 (inst/sec) elapsed = 0:0:01:25 / Wed May 13 00:28:05 2015
GPGPU-Sim uArch: cycles simulated: 33000  inst.: 1352832 (ipc=41.0) sim_rate=15549 (inst/sec) elapsed = 0:0:01:27 / Wed May 13 00:28:07 2015
GPGPU-Sim uArch: cycles simulated: 33500  inst.: 1374464 (ipc=41.0) sim_rate=15618 (inst/sec) elapsed = 0:0:01:28 / Wed May 13 00:28:08 2015
GPGPU-Sim PTX: 1400000 instructions simulated : ctaid=(1,0,0) tid=(63,0,0)
GPGPU-Sim uArch: cycles simulated: 34000  inst.: 1393984 (ipc=41.0) sim_rate=15662 (inst/sec) elapsed = 0:0:01:29 / Wed May 13 00:28:09 2015
GPGPU-Sim uArch: cycles simulated: 34500  inst.: 1421440 (ipc=41.2) sim_rate=15793 (inst/sec) elapsed = 0:0:01:30 / Wed May 13 00:28:10 2015
GPGPU-Sim uArch: cycles simulated: 35000  inst.: 1445504 (ipc=41.3) sim_rate=15884 (inst/sec) elapsed = 0:0:01:31 / Wed May 13 00:28:11 2015
GPGPU-Sim uArch: cycles simulated: 35500  inst.: 1468096 (ipc=41.4) sim_rate=15957 (inst/sec) elapsed = 0:0:01:32 / Wed May 13 00:28:12 2015
GPGPU-Sim PTX: 1500000 instructions simulated : ctaid=(23,0,0) tid=(31,0,0)
GPGPU-Sim uArch: cycles simulated: 36000  inst.: 1490688 (ipc=41.4) sim_rate=16028 (inst/sec) elapsed = 0:0:01:33 / Wed May 13 00:28:13 2015
GPGPU-Sim uArch: cycles simulated: 36500  inst.: 1516992 (ipc=41.6) sim_rate=16138 (inst/sec) elapsed = 0:0:01:34 / Wed May 13 00:28:14 2015
GPGPU-Sim uArch: cycles simulated: 37000  inst.: 1545088 (ipc=41.8) sim_rate=16264 (inst/sec) elapsed = 0:0:01:35 / Wed May 13 00:28:15 2015
GPGPU-Sim uArch: cycles simulated: 37500  inst.: 1564032 (ipc=41.7) sim_rate=16292 (inst/sec) elapsed = 0:0:01:36 / Wed May 13 00:28:16 2015
GPGPU-Sim PTX: 1600000 instructions simulated : ctaid=(3,0,0) tid=(63,0,0)
GPGPU-Sim uArch: cycles simulated: 38000  inst.: 1586112 (ipc=41.7) sim_rate=16351 (inst/sec) elapsed = 0:0:01:37 / Wed May 13 00:28:17 2015
GPGPU-Sim uArch: cycles simulated: 38500  inst.: 1609536 (ipc=41.8) sim_rate=16423 (inst/sec) elapsed = 0:0:01:38 / Wed May 13 00:28:18 2015
GPGPU-Sim uArch: cycles simulated: 39000  inst.: 1636416 (ipc=42.0) sim_rate=16364 (inst/sec) elapsed = 0:0:01:40 / Wed May 13 00:28:20 2015
GPGPU-Sim uArch: cycles simulated: 39500  inst.: 1659904 (ipc=42.0) sim_rate=16434 (inst/sec) elapsed = 0:0:01:41 / Wed May 13 00:28:21 2015
GPGPU-Sim PTX: 1700000 instructions simulated : ctaid=(21,0,0) tid=(31,0,0)
GPGPU-Sim uArch: cycles simulated: 40000  inst.: 1685632 (ipc=42.1) sim_rate=16525 (inst/sec) elapsed = 0:0:01:42 / Wed May 13 00:28:22 2015
GPGPU-Sim uArch: cycles simulated: 40500  inst.: 1709376 (ipc=42.2) sim_rate=16595 (inst/sec) elapsed = 0:0:01:43 / Wed May 13 00:28:23 2015
GPGPU-Sim uArch: cycles simulated: 41000  inst.: 1736192 (ipc=42.3) sim_rate=16694 (inst/sec) elapsed = 0:0:01:44 / Wed May 13 00:28:24 2015
GPGPU-Sim uArch: cycles simulated: 41500  inst.: 1759552 (ipc=42.4) sim_rate=16757 (inst/sec) elapsed = 0:0:01:45 / Wed May 13 00:28:25 2015
GPGPU-Sim uArch: cycles simulated: 42000  inst.: 1782592 (ipc=42.4) sim_rate=16816 (inst/sec) elapsed = 0:0:01:46 / Wed May 13 00:28:26 2015
GPGPU-Sim PTX: 1800000 instructions simulated : ctaid=(22,0,0) tid=(63,0,0)
GPGPU-Sim uArch: cycles simulated: 42500  inst.: 1804416 (ipc=42.5) sim_rate=16863 (inst/sec) elapsed = 0:0:01:47 / Wed May 13 00:28:27 2015
GPGPU-Sim uArch: cycles simulated: 43000  inst.: 1829568 (ipc=42.5) sim_rate=16940 (inst/sec) elapsed = 0:0:01:48 / Wed May 13 00:28:28 2015
GPGPU-Sim uArch: cycles simulated: 43500  inst.: 1852800 (ipc=42.6) sim_rate=16998 (inst/sec) elapsed = 0:0:01:49 / Wed May 13 00:28:29 2015
GPGPU-Sim uArch: cycles simulated: 44000  inst.: 1875520 (ipc=42.6) sim_rate=17050 (inst/sec) elapsed = 0:0:01:50 / Wed May 13 00:28:30 2015
GPGPU-Sim PTX: 1900000 instructions simulated : ctaid=(12,0,0) tid=(31,0,0)
GPGPU-Sim uArch: cycles simulated: 44500  inst.: 1903616 (ipc=42.8) sim_rate=16996 (inst/sec) elapsed = 0:0:01:52 / Wed May 13 00:28:32 2015
GPGPU-Sim uArch: cycles simulated: 45000  inst.: 1932544 (ipc=42.9) sim_rate=17102 (inst/sec) elapsed = 0:0:01:53 / Wed May 13 00:28:33 2015
GPGPU-Sim uArch: cycles simulated: 45500  inst.: 1953408 (ipc=42.9) sim_rate=17135 (inst/sec) elapsed = 0:0:01:54 / Wed May 13 00:28:34 2015
GPGPU-Sim uArch: cycles simulated: 46000  inst.: 1972864 (ipc=42.9) sim_rate=17155 (inst/sec) elapsed = 0:0:01:55 / Wed May 13 00:28:35 2015
GPGPU-Sim PTX: 2000000 instructions simulated : ctaid=(18,0,0) tid=(63,0,0)
GPGPU-Sim uArch: cycles simulated: 46500  inst.: 2002688 (ipc=43.1) sim_rate=17264 (inst/sec) elapsed = 0:0:01:56 / Wed May 13 00:28:36 2015
GPGPU-Sim uArch: cycles simulated: 47000  inst.: 2032192 (ipc=43.2) sim_rate=17369 (inst/sec) elapsed = 0:0:01:57 / Wed May 13 00:28:37 2015
GPGPU-Sim uArch: cycles simulated: 47500  inst.: 2060672 (ipc=43.4) sim_rate=17463 (inst/sec) elapsed = 0:0:01:58 / Wed May 13 00:28:38 2015
GPGPU-Sim PTX: 2100000 instructions simulated : ctaid=(42,0,0) tid=(31,0,0)
GPGPU-Sim uArch: cycles simulated: 48000  inst.: 2086784 (ipc=43.5) sim_rate=17536 (inst/sec) elapsed = 0:0:01:59 / Wed May 13 00:28:39 2015
GPGPU-Sim uArch: cycles simulated: 48500  inst.: 2114624 (ipc=43.6) sim_rate=17621 (inst/sec) elapsed = 0:0:02:00 / Wed May 13 00:28:40 2015
GPGPU-Sim uArch: cycles simulated: 49000  inst.: 2144256 (ipc=43.8) sim_rate=17721 (inst/sec) elapsed = 0:0:02:01 / Wed May 13 00:28:41 2015
GPGPU-Sim uArch: cycles simulated: 49500  inst.: 2171328 (ipc=43.9) sim_rate=17797 (inst/sec) elapsed = 0:0:02:02 / Wed May 13 00:28:42 2015
GPGPU-Sim PTX: 2200000 instructions simulated : ctaid=(13,0,0) tid=(63,0,0)
GPGPU-Sim uArch: cycles simulated: 50000  inst.: 2200064 (ipc=44.0) sim_rate=17742 (inst/sec) elapsed = 0:0:02:04 / Wed May 13 00:28:44 2015
GPGPU-Sim uArch: cycles simulated: 50500  inst.: 2229504 (ipc=44.1) sim_rate=17836 (inst/sec) elapsed = 0:0:02:05 / Wed May 13 00:28:45 2015
GPGPU-Sim uArch: cycles simulated: 51000  inst.: 2257664 (ipc=44.3) sim_rate=17917 (inst/sec) elapsed = 0:0:02:06 / Wed May 13 00:28:46 2015
GPGPU-Sim PTX: 2300000 instructions simulated : ctaid=(8,0,0) tid=(31,0,0)
GPGPU-Sim uArch: cycles simulated: 51500  inst.: 2286464 (ipc=44.4) sim_rate=18003 (inst/sec) elapsed = 0:0:02:07 / Wed May 13 00:28:47 2015
GPGPU-Sim uArch: cycles simulated: 52000  inst.: 2315136 (ipc=44.5) sim_rate=18087 (inst/sec) elapsed = 0:0:02:08 / Wed May 13 00:28:48 2015
GPGPU-Sim uArch: cycles simulated: 52500  inst.: 2343296 (ipc=44.6) sim_rate=18165 (inst/sec) elapsed = 0:0:02:09 / Wed May 13 00:28:49 2015
GPGPU-Sim uArch: cycles simulated: 53000  inst.: 2371712 (ipc=44.7) sim_rate=18243 (inst/sec) elapsed = 0:0:02:10 / Wed May 13 00:28:50 2015
GPGPU-Sim PTX: 2400000 instructions simulated : ctaid=(42,0,0) tid=(63,0,0)
GPGPU-Sim uArch: cycles simulated: 53500  inst.: 2401408 (ipc=44.9) sim_rate=18192 (inst/sec) elapsed = 0:0:02:12 / Wed May 13 00:28:52 2015
GPGPU-Sim uArch: cycles simulated: 54000  inst.: 2426688 (ipc=44.9) sim_rate=18245 (inst/sec) elapsed = 0:0:02:13 / Wed May 13 00:28:53 2015
GPGPU-Sim uArch: cycles simulated: 54500  inst.: 2466432 (ipc=45.3) sim_rate=18406 (inst/sec) elapsed = 0:0:02:14 / Wed May 13 00:28:54 2015
GPGPU-Sim PTX: 2500000 instructions simulated : ctaid=(2,0,0) tid=(31,0,0)
GPGPU-Sim uArch: cycles simulated: 55000  inst.: 2517952 (ipc=45.8) sim_rate=18651 (inst/sec) elapsed = 0:0:02:15 / Wed May 13 00:28:55 2015
GPGPU-Sim PTX: 2600000 instructions simulated : ctaid=(41,0,0) tid=(63,0,0)
GPGPU-Sim uArch: cycles simulated: 55500  inst.: 2584704 (ipc=46.6) sim_rate=19005 (inst/sec) elapsed = 0:0:02:16 / Wed May 13 00:28:56 2015
GPGPU-Sim uArch: cycles simulated: 56000  inst.: 2671424 (ipc=47.7) sim_rate=19358 (inst/sec) elapsed = 0:0:02:18 / Wed May 13 00:28:58 2015
GPGPU-Sim PTX: 2700000 instructions simulated : ctaid=(43,0,0) tid=(31,0,0)
GPGPU-Sim uArch: cycles simulated: 56500  inst.: 2758144 (ipc=48.8) sim_rate=19701 (inst/sec) elapsed = 0:0:02:20 / Wed May 13 00:29:00 2015
GPGPU-Sim PTX: 2800000 instructions simulated : ctaid=(21,0,0) tid=(63,0,0)
GPGPU-Sim uArch: cycles simulated: 57000  inst.: 2841792 (ipc=49.9) sim_rate=20154 (inst/sec) elapsed = 0:0:02:21 / Wed May 13 00:29:01 2015
GPGPU-Sim PTX: 2900000 instructions simulated : ctaid=(44,0,0) tid=(31,0,0)
GPGPU-Sim uArch: cycles simulated: 57500  inst.: 2925312 (ipc=50.9) sim_rate=20456 (inst/sec) elapsed = 0:0:02:23 / Wed May 13 00:29:03 2015
GPGPU-Sim PTX: 3000000 instructions simulated : ctaid=(24,0,0) tid=(63,0,0)
GPGPU-Sim uArch: cycles simulated: 58000  inst.: 3010816 (ipc=51.9) sim_rate=20764 (inst/sec) elapsed = 0:0:02:25 / Wed May 13 00:29:05 2015
GPGPU-Sim PTX: 3100000 instructions simulated : ctaid=(29,0,0) tid=(31,0,0)
GPGPU-Sim uArch: cycles simulated: 58500  inst.: 3097344 (ipc=52.9) sim_rate=21070 (inst/sec) elapsed = 0:0:02:27 / Wed May 13 00:29:07 2015
GPGPU-Sim uArch: cycles simulated: 59000  inst.: 3182144 (ipc=53.9) sim_rate=21356 (inst/sec) elapsed = 0:0:02:29 / Wed May 13 00:29:09 2015
GPGPU-Sim PTX: 3200000 instructions simulated : ctaid=(1,0,0) tid=(63,0,0)
GPGPU-Sim uArch: cycles simulated: 59500  inst.: 3267840 (ipc=54.9) sim_rate=21498 (inst/sec) elapsed = 0:0:02:32 / Wed May 13 00:29:12 2015
GPGPU-Sim PTX: 3300000 instructions simulated : ctaid=(10,0,0) tid=(31,0,0)
GPGPU-Sim uArch: cycles simulated: 60000  inst.: 3353920 (ipc=55.9) sim_rate=21778 (inst/sec) elapsed = 0:0:02:34 / Wed May 13 00:29:14 2015
GPGPU-Sim PTX: 3400000 instructions simulated : ctaid=(2,0,0) tid=(63,0,0)
GPGPU-Sim uArch: cycles simulated: 60500  inst.: 3438144 (ipc=56.8) sim_rate=22039 (inst/sec) elapsed = 0:0:02:36 / Wed May 13 00:29:16 2015
GPGPU-Sim PTX: 3500000 instructions simulated : ctaid=(24,0,0) tid=(31,0,0)
GPGPU-Sim uArch: cycles simulated: 61000  inst.: 3521984 (ipc=57.7) sim_rate=22433 (inst/sec) elapsed = 0:0:02:37 / Wed May 13 00:29:17 2015
GPGPU-Sim PTX: 3600000 instructions simulated : ctaid=(7,0,0) tid=(63,0,0)
GPGPU-Sim uArch: cycles simulated: 61500  inst.: 3606016 (ipc=58.6) sim_rate=22679 (inst/sec) elapsed = 0:0:02:39 / Wed May 13 00:29:19 2015
GPGPU-Sim PTX: 3700000 instructions simulated : ctaid=(32,0,0) tid=(31,0,0)
GPGPU-Sim uArch: cycles simulated: 62000  inst.: 3692608 (ipc=59.6) sim_rate=22935 (inst/sec) elapsed = 0:0:02:41 / Wed May 13 00:29:21 2015
GPGPU-Sim uArch: cycles simulated: 62500  inst.: 3778432 (ipc=60.5) sim_rate=23323 (inst/sec) elapsed = 0:0:02:42 / Wed May 13 00:29:22 2015
GPGPU-Sim PTX: 3800000 instructions simulated : ctaid=(11,0,0) tid=(63,0,0)
GPGPU-Sim uArch: cycles simulated: 63000  inst.: 3863616 (ipc=61.3) sim_rate=23558 (inst/sec) elapsed = 0:0:02:44 / Wed May 13 00:29:24 2015
GPGPU-Sim PTX: 3900000 instructions simulated : ctaid=(33,0,0) tid=(31,0,0)
GPGPU-Sim uArch: cycles simulated: 63500  inst.: 3946560 (ipc=62.2) sim_rate=23774 (inst/sec) elapsed = 0:0:02:46 / Wed May 13 00:29:26 2015
GPGPU-Sim PTX: 4000000 instructions simulated : ctaid=(7,0,0) tid=(63,0,0)
GPGPU-Sim uArch: cycles simulated: 64000  inst.: 4031552 (ipc=63.0) sim_rate=23997 (inst/sec) elapsed = 0:0:02:48 / Wed May 13 00:29:28 2015
GPGPU-Sim PTX: 4100000 instructions simulated : ctaid=(35,0,0) tid=(31,0,0)
GPGPU-Sim uArch: cycles simulated: 64500  inst.: 4114304 (ipc=63.8) sim_rate=24344 (inst/sec) elapsed = 0:0:02:49 / Wed May 13 00:29:29 2015
GPGPU-Sim PTX: 4200000 instructions simulated : ctaid=(38,0,0) tid=(63,0,0)
GPGPU-Sim uArch: cycles simulated: 65000  inst.: 4191744 (ipc=64.5) sim_rate=24370 (inst/sec) elapsed = 0:0:02:52 / Wed May 13 00:29:32 2015
GPGPU-Sim uArch: cycles simulated: 65500  inst.: 4275968 (ipc=65.3) sim_rate=24574 (inst/sec) elapsed = 0:0:02:54 / Wed May 13 00:29:34 2015
GPGPU-Sim PTX: 4300000 instructions simulated : ctaid=(1,0,0) tid=(31,0,0)
GPGPU-Sim uArch: cycles simulated: 66000  inst.: 4358272 (ipc=66.0) sim_rate=24762 (inst/sec) elapsed = 0:0:02:56 / Wed May 13 00:29:36 2015
GPGPU-Sim PTX: 4400000 instructions simulated : ctaid=(27,0,0) tid=(63,0,0)
GPGPU-Sim uArch: cycles simulated: 66500  inst.: 4444224 (ipc=66.8) sim_rate=24967 (inst/sec) elapsed = 0:0:02:58 / Wed May 13 00:29:38 2015
GPGPU-Sim PTX: 4500000 instructions simulated : ctaid=(13,0,0) tid=(31,0,0)
GPGPU-Sim uArch: cycles simulated: 67000  inst.: 4529536 (ipc=67.6) sim_rate=25164 (inst/sec) elapsed = 0:0:03:00 / Wed May 13 00:29:40 2015
GPGPU-Sim PTX: 4600000 instructions simulated : ctaid=(16,0,0) tid=(63,0,0)
GPGPU-Sim uArch: cycles simulated: 67500  inst.: 4611712 (ipc=68.3) sim_rate=25339 (inst/sec) elapsed = 0:0:03:02 / Wed May 13 00:29:42 2015
GPGPU-Sim PTX: 4700000 instructions simulated : ctaid=(4,0,0) tid=(31,0,0)
GPGPU-Sim uArch: cycles simulated: 68000  inst.: 4688896 (ipc=69.0) sim_rate=25483 (inst/sec) elapsed = 0:0:03:04 / Wed May 13 00:29:44 2015
GPGPU-Sim uArch: cycles simulated: 68500  inst.: 4765376 (ipc=69.6) sim_rate=25620 (inst/sec) elapsed = 0:0:03:06 / Wed May 13 00:29:46 2015
GPGPU-Sim PTX: 4800000 instructions simulated : ctaid=(28,0,0) tid=(63,0,0)
GPGPU-Sim uArch: cycles simulated: 69000  inst.: 4848832 (ipc=70.3) sim_rate=25791 (inst/sec) elapsed = 0:0:03:08 / Wed May 13 00:29:48 2015
GPGPU-Sim PTX: 4900000 instructions simulated : ctaid=(21,0,0) tid=(31,0,0)
GPGPU-Sim uArch: cycles simulated: 69500  inst.: 4935168 (ipc=71.0) sim_rate=25974 (inst/sec) elapsed = 0:0:03:10 / Wed May 13 00:29:50 2015
GPGPU-Sim PTX: 5000000 instructions simulated : ctaid=(4,0,0) tid=(63,0,0)
GPGPU-Sim uArch: cycles simulated: 70000  inst.: 5011072 (ipc=71.6) sim_rate=26235 (inst/sec) elapsed = 0:0:03:11 / Wed May 13 00:29:51 2015
GPGPU-Sim PTX: 5100000 instructions simulated : ctaid=(42,0,0) tid=(31,0,0)
GPGPU-Sim uArch: cycles simulated: 70500  inst.: 5089792 (ipc=72.2) sim_rate=26371 (inst/sec) elapsed = 0:0:03:13 / Wed May 13 00:29:53 2015
GPGPU-Sim uArch: cycles simulated: 71000  inst.: 5170496 (ipc=72.8) sim_rate=26515 (inst/sec) elapsed = 0:0:03:15 / Wed May 13 00:29:55 2015
GPGPU-Sim PTX: 5200000 instructions simulated : ctaid=(16,0,0) tid=(63,0,0)
GPGPU-Sim uArch: cycles simulated: 71500  inst.: 5246080 (ipc=73.4) sim_rate=26629 (inst/sec) elapsed = 0:0:03:17 / Wed May 13 00:29:57 2015
GPGPU-Sim PTX: 5300000 instructions simulated : ctaid=(40,0,0) tid=(31,0,0)
GPGPU-Sim uArch: cycles simulated: 72000  inst.: 5327872 (ipc=74.0) sim_rate=26773 (inst/sec) elapsed = 0:0:03:19 / Wed May 13 00:29:59 2015
GPGPU-Sim PTX: 5400000 instructions simulated : ctaid=(40,0,0) tid=(63,0,0)
GPGPU-Sim uArch: cycles simulated: 72500  inst.: 5410368 (ipc=74.6) sim_rate=26917 (inst/sec) elapsed = 0:0:03:21 / Wed May 13 00:30:01 2015
GPGPU-Sim PTX: 5500000 instructions simulated : ctaid=(18,0,0) tid=(31,0,0)
GPGPU-Sim uArch: cycles simulated: 73000  inst.: 5489664 (ipc=75.2) sim_rate=27042 (inst/sec) elapsed = 0:0:03:23 / Wed May 13 00:30:03 2015
GPGPU-Sim uArch: cycles simulated: 73500  inst.: 5568896 (ipc=75.8) sim_rate=27165 (inst/sec) elapsed = 0:0:03:25 / Wed May 13 00:30:05 2015
GPGPU-Sim PTX: 5600000 instructions simulated : ctaid=(34,0,0) tid=(63,0,0)
GPGPU-Sim uArch: cycles simulated: 74000  inst.: 5650432 (ipc=76.4) sim_rate=27296 (inst/sec) elapsed = 0:0:03:27 / Wed May 13 00:30:07 2015
GPGPU-Sim PTX: 5700000 instructions simulated : ctaid=(18,0,0) tid=(31,0,0)
GPGPU-Sim uArch: cycles simulated: 74500  inst.: 5733504 (ipc=77.0) sim_rate=27564 (inst/sec) elapsed = 0:0:03:28 / Wed May 13 00:30:08 2015
GPGPU-Sim PTX: 5800000 instructions simulated : ctaid=(3,0,0) tid=(63,0,0)
GPGPU-Sim uArch: cycles simulated: 75000  inst.: 5814464 (ipc=77.5) sim_rate=27687 (inst/sec) elapsed = 0:0:03:30 / Wed May 13 00:30:10 2015
GPGPU-Sim PTX: 5900000 instructions simulated : ctaid=(4,0,0) tid=(31,0,0)
GPGPU-Sim uArch: cycles simulated: 75500  inst.: 5894272 (ipc=78.1) sim_rate=27803 (inst/sec) elapsed = 0:0:03:32 / Wed May 13 00:30:12 2015
GPGPU-Sim uArch: cycles simulated: 76000  inst.: 5976640 (ipc=78.6) sim_rate=28059 (inst/sec) elapsed = 0:0:03:33 / Wed May 13 00:30:13 2015
GPGPU-Sim PTX: 6000000 instructions simulated : ctaid=(11,0,0) tid=(63,0,0)
GPGPU-Sim uArch: cycles simulated: 76500  inst.: 6058624 (ipc=79.2) sim_rate=28179 (inst/sec) elapsed = 0:0:03:35 / Wed May 13 00:30:15 2015
GPGPU-Sim PTX: 6100000 instructions simulated : ctaid=(19,0,0) tid=(31,0,0)
GPGPU-Sim uArch: cycles simulated: 77000  inst.: 6140992 (ipc=79.8) sim_rate=28430 (inst/sec) elapsed = 0:0:03:36 / Wed May 13 00:30:16 2015
GPGPU-Sim PTX: 6200000 instructions simulated : ctaid=(15,0,0) tid=(63,0,0)
GPGPU-Sim uArch: cycles simulated: 77500  inst.: 6224256 (ipc=80.3) sim_rate=28421 (inst/sec) elapsed = 0:0:03:39 / Wed May 13 00:30:19 2015
GPGPU-Sim PTX: 6300000 instructions simulated : ctaid=(15,0,0) tid=(31,0,0)
GPGPU-Sim uArch: cycles simulated: 78000  inst.: 6305280 (ipc=80.8) sim_rate=28530 (inst/sec) elapsed = 0:0:03:41 / Wed May 13 00:30:21 2015
GPGPU-Sim PTX: 6400000 instructions simulated : ctaid=(7,0,0) tid=(63,0,0)
GPGPU-Sim uArch: cycles simulated: 78500  inst.: 6387392 (ipc=81.4) sim_rate=28643 (inst/sec) elapsed = 0:0:03:43 / Wed May 13 00:30:23 2015
[...]
dq_lat_table:0 	0 	0 	0 	0 	0 	0 	0 	0 	0 	0 	0 	0 	0 	0 	0 	0 	0 	0 	0 	0 	0 	0 	0 	0 	0 	0 	0 	0 	0 	0 	0 	
mf_lat_table:0 	0 	0 	0 	0 	0 	0 	72414 	1809387 	40010 	17413 	0 	0 	0 	0 	0 	0 	0 	0 	0 	0 	0 	0 	0 	0 	0 	0 	0 	0 	0 	0 	0 	
icnt2mem_lat_table:0 	0 	0 	1375827 	1259551 	147391 	11726 	9521 	18123 	20062 	33 	0 	0 	0 	0 	0 	0 	0 	0 	0 	0 	0 	0 	0 	
icnt2sh_lat_table:0 	0 	0 	1184920 	370050 	0 	0 	0 	0 	0 	0 	380 	1004 	2008 	4349 	6659 	0 	0 	0 	0 	12696 	141736 	193166 	22256 	
mf_lat_pw_table:0 	0 	0 	0 	0 	0 	0 	5260 	21131 	194 	136 	0 	0 	0 	0 	0 	0 	0 	0 	0 	0 	0 	0 	0 	0 	0 	0 	0 	0 	0 	0 	0 	
maximum concurrent accesses to same row:
dram[0]:        60         0        64         0        64         0        56         0        64         0        64         0        52         0        36         0 
dram[1]:         2         0         0         0         0         0         0         0         0         0         0         0         0         0         0         0 
dram[2]:         2        64         0        64         0        64         0        64         0        64         0        64         0        52         0        40 
dram[3]:         2         0         0         0         0         0         0         0         0         0         0         0         0         0         0         0 
dram[4]:        58         0        64         0        64         0        64         0        64         0        64         0        56         0        56         0 
dram[5]:         0         0         0         0         0         0         0         0         0         0         0         0         0         0         0         0 
maximum service time to same row:
dram[0]:     56387       232     26279         0     90160   1514229     76380   3677904     78641         0     37044         0     47878         0     71170         0 
dram[1]:   1535793      1379         0         0   1500519   1498650   3679599   3663915         0         0         0         0         0         0         0         0 
dram[2]:   1537011     41451         0     49113   1519779     39926   3650412     54278         0     64516         0     49255         0     37287         0     75790 
dram[3]:   1629006     27304         0         0   1503957   1502022   3678682   3662296         0         0         0         0         0         0         0         0 
dram[4]:     94287   1429840     36609         0     58927   1503125     37890   3675660     43208         0     32713         0     29728         0     41366         0 
dram[5]:       232   1460303         0         0   1508528   1495449   3683997   3684054         0         0         0         0         0         0         0         0 
average row accesses per activate:
dram[0]:  3.409606  4.000000  3.369025      -nan  3.403123 20.000000  3.428344 20.000000  3.387374      -nan  3.395574      -nan  3.408288      -nan  3.369650      -nan 
dram[1]:  4.000000  4.000000      -nan      -nan 20.000000 20.000000 24.000000 20.000000      -nan      -nan      -nan      -nan      -nan      -nan      -nan      -nan 
dram[2]:  4.000000  3.317394      -nan  3.275670 20.000000  3.302788 24.000000  3.338272      -nan  3.278394      -nan  3.303369      -nan  3.300726      -nan  3.295398 
dram[3]:  4.000000  4.000000      -nan      -nan 20.000000 24.000000 24.000000 20.000000      -nan      -nan      -nan      -nan      -nan      -nan      -nan      -nan 
dram[4]:  3.299547  4.000000  3.269487      -nan  3.288507 24.000000  3.322194 20.000000  3.280981      -nan  3.283048      -nan  3.307626      -nan  3.279254      -nan 
dram[5]:  3.000000  4.000000      -nan      -nan 20.000000 24.000000 20.000000 20.000000      -nan      -nan      -nan      -nan      -nan      -nan      -nan      -nan 
average row locality = 3857708/1158363 = 3.330310
number of total memory accesses made:
dram[0]:         0         0         0         0         0         0         0         0         0         0         0         0         0         0         0         0 
dram[1]:         0         0         0         0         0         0         0         0         0         0         0         0         0         0         0         0 
dram[2]:         0         0         0         0         0         0         0         0         0         0         0         0         0         0         0         0 
dram[3]:         0         0         0         0         0         0         0         0         0         0         0         0         0         0         0         0 
dram[4]:         0         0         0         0         0         0         0         0         0         0         0         0         0         0         0         0 
dram[5]:         0         0         0         0         0         0         0         0         0         0         0         0         0         0         0         0 
total accesses: 0
min_bank_accesses = 0!
min_chip_accesses = 0!
number of total read accesses:
dram[0]:    114944         4    115923         0    107220        10    110740        10    109708         0    113925         0    113129         0    112672         0 
dram[1]:         4         4         0         0        10        10        12        10         0         0         0         0         0         0         0         0 
dram[2]:         4    109400         0    109753        10    101328        12    105190         0    104463         0    108163         0    107810         0    107095 
dram[3]:         4         4         0         0        10        12        12        10         0         0         0         0         0         0         0         0 
dram[4]:    108941         4    110636         0    100741        12    105088        10    104351         0    107772         0    107996         0    106975         0 
dram[5]:         3         4         0         0        10        12        10        10         0         0         0         0         0         0         0         0 
total reads: 2604190
min_bank_accesses = 0!
chip skew: 898285/49 = 18332.35
number of total write accesses:
dram[0]:     55226         0     56342         0     51648        10     52672        10     53621         0     54689         0     54644         0     54776         0 
dram[1]:         0         0         0         0        10        10        12        10         0         0         0         0         0         0         0         0 
dram[2]:         0     52250         0     53169        10     48754        12     49826         0     50569         0     51578         0     51790         0     51674 
dram[3]:         0         0         0         0        10        12        12        10         0         0         0         0         0         0         0         0 
dram[4]:     52100         0     53574         0     48452        12     49992        10     50718         0     51620         0     51888         0     51754         0 
dram[5]:         0         0         0         0        10        12        10        10         0         0         0         0         0         0         0         0 
total reads: 1253518
min_bank_accesses = 0!
chip skew: 433638/42 = 10324.71
average mf latency per bank:
dram[0]:        155         0       156    none         159       220       158       142       158    none         157    none         156    none         158    none  
dram[1]:       2705         0    none      none         205       216       133       132    none      none      none      none      none      none      none      none  
dram[2]:       2615       156    none         158       252       160       136       159    none         159    none         158    none         157    none         159
dram[3]:       1168         0    none      none         206       228       132       138    none      none      none      none      none      none      none      none  
dram[4]:        157         0       157    none         161       223       160       142       159    none         158    none         157    none         159    none  
dram[5]:          0         0    none      none         207       204       160       131    none      none      none      none      none      none      none      none  
maximum mf latency per bank:
dram[0]:       1590         0      1627         0      1728       372      1612       344      1707         0      1910         0      1670         0      1746         0
dram[1]:        445         0         0         0       283       392       292       285         0         0         0         0         0         0         0         0
dram[2]:        273      1501         0      1553       758      1571       345      1637         0      1582         0      1682         0      1490         0      1499
dram[3]:        272         0         0         0       280       558       285       344         0         0         0         0         0         0         0         0
dram[4]:       1575         0      1575         0      1743       384      1647       338      1676         0      1749         0      1618         0      1636         0
dram[5]:          0         0         0         0       292       278       562       278         0         0         0         0         0         0         0         0

Number of Memory Banks Accessed per Memory Operation per Warp (from 0):
0	0	0	0	0	0	0	0	0	0	0	0	0	0	0	0	0	0	0	0	0	0	0	0	0	0	0	0	0	0	0	0	0	0	0	0	0	0	0	0	0	0	0	0	0	0	0	0	0	0	0	0	0	0	0	0	0	0	0	0	0	0	0	0	0	0	0	0	0	0	0	0	0	0	0	0	0	0	0	0	0	0	0	0	0	0	0	0	0	0	0	0	0	0	0	0	
Average # of Memory Banks Accessed per Memory Operation per Warp=-nan

position of mrq chosen
0	0	0	0	0	0	0	0	0	0	0	0	0	0	0	0	

average position of mrq chosen = -nan
Memory Partition 0: 
Cache L2_bank_000:
MSHR contents
MSHR: tag=0x80007c00, atomic=0 1 entries : 0x7fed1b28d790 :  mf: uid=15891169, sid03:w00, part=0, addr=0x80007c00, load , size=128, unknown  status = IN_PARTITION_DRAM (13365470), 

Cache L2_bank_001:
MSHR contents

In Dram Latency Queue (total = 0): 
DRAM[0]: 16 bks, busW=4 BL=8 CL=12, tRRD=2 tCCD=6, tRCD=12 tRAS=28 tRP=12 tRC=40
n_cmd=17642424 n_nop=14194219 n_act=392185 n_pre=392174 n_req=1331923 n_rd=1796570 n_write=867276 bw_util=0.302
n_activity=12819871 dram_eff=0.4156
bk0: 229888a 13610717i bk1: 8a 17593170i bk2: 231846a 13523617i bk3: 0a 17588347i bk4: 214440a 13801924i bk5: 20a 17598076i bk6: 221480a 13664103i bk7: 20a 17602645i bk8: 219416a 13797912i bk9: 0a 17602293i bk10: 227850a 13618618i bk11: 0a 17599869i bk12: 226258a 13597180i bk13: 0a 17599290i bk14: 225344a 13570783i bk15: 0a 17597321i 
dram_util_bins: 0 0 0 0 0 0 0 0 0 0
dram_eff_bins: 0 0 0 0 0 0 0 0 0 0
mrqq: max=16 avg=3.67157
Memory Partition 1: 
Cache L2_bank_002:
MSHR contents

Cache L2_bank_003:
MSHR contents

In Dram Latency Queue (total = 0): 
DRAM[1]: 16 bks, busW=4 BL=8 CL=12, tRRD=2 tCCD=6, tRCD=12 tRAS=28 tRP=12 tRC=40
n_cmd=17642424 n_nop=17642232 n_act=7 n_pre=1 n_req=92 n_rd=100 n_write=84 bw_util=2.086e-05
n_activity=1453 dram_eff=0.2533
bk0: 8a 17642374i bk1: 8a 17642397i bk2: 0a 17642425i bk3: 0a 17642426i bk4: 20a 17642183i bk5: 20a 17642182i bk6: 24a 17642133i bk7: 20a 17642180i bk8: 0a 17642421i bk9: 0a 17642421i bk10: 0a 17642422i bk11: 0a 17642423i bk12: 0a 17642423i bk13: 0a 17642424i bk14: 0a 17642425i bk15: 0a 17642425i 
dram_util_bins: 0 0 0 0 0 0 0 0 0 0
dram_eff_bins: 0 0 0 0 0 0 0 0 0 0
mrqq: max=3 avg=4.84627e-05
Memory Partition 2: 
Cache L2_bank_004:
MSHR contents

Cache L2_bank_005:
MSHR contents

In Dram Latency Queue (total = 0): 
DRAM[2]: 16 bks, busW=4 BL=8 CL=12, tRRD=2 tCCD=6, tRCD=12 tRAS=28 tRP=12 tRC=40
n_cmd=17642424 n_nop=14351667 n_act=382524 n_pre=382513 n_req=1262860 n_rd=1706456 n_write=819264 bw_util=0.2863
n_activity=11952978 dram_eff=0.4226
bk0: 8a 17598637i bk1: 218800a 13742589i bk2: 0a 17594201i bk3: 219506a 13677850i bk4: 20a 17589882i bk5: 202656a 13937910i bk6: 24a 17599195i bk7: 210380a 13786631i bk8: 0a 17603985i bk9: 208926a 13905432i bk10: 0a 17603036i bk11: 216326a 13751715i bk12: 0a 17600564i bk13: 215620a 13708881i bk14: 0a 17598642i bk15: 214190a 13702687i 
dram_util_bins: 0 0 0 0 0 0 0 0 0 0
dram_eff_bins: 0 0 0 0 0 0 0 0 0 0
mrqq: max=16 avg=3.56535
Memory Partition 3: 
Cache L2_bank_006:
MSHR contents

Cache L2_bank_007:
MSHR contents

In Dram Latency Queue (total = 0): 
DRAM[3]: 16 bks, busW=4 BL=8 CL=12, tRRD=2 tCCD=6, tRCD=12 tRAS=28 tRP=12 tRC=40
n_cmd=17642424 n_nop=17642224 n_act=7 n_pre=1 n_req=96 n_rd=104 n_write=88 bw_util=2.177e-05
n_activity=1511 dram_eff=0.2541
bk0: 8a 17642374i bk1: 8a 17642396i bk2: 0a 17642423i bk3: 0a 17642427i bk4: 20a 17642185i bk5: 24a 17642136i bk6: 24a 17642134i bk7: 20a 17642179i bk8: 0a 17642420i bk9: 0a 17642421i bk10: 0a 17642422i bk11: 0a 17642422i bk12: 0a 17642422i bk13: 0a 17642423i bk14: 0a 17642425i bk15: 0a 17642426i 
dram_util_bins: 0 0 0 0 0 0 0 0 0 0
dram_eff_bins: 0 0 0 0 0 0 0 0 0 0
mrqq: max=3 avg=4.99364e-05
Memory Partition 4: 
Cache L2_bank_008:
MSHR contents

Cache L2_bank_009:
MSHR contents

In Dram Latency Queue (total = 0): 
DRAM[4]: 16 bks, busW=4 BL=8 CL=12, tRRD=2 tCCD=6, tRCD=12 tRAS=28 tRP=12 tRC=40
n_cmd=17642424 n_nop=14349867 n_act=383638 n_pre=383627 n_req=1262646 n_rd=1705052 n_write=820240 bw_util=0.2863
n_activity=11981366 dram_eff=0.4215
bk0: 217882a 13747304i bk1: 8a 17594034i bk2: 221272a 13628359i bk3: 0a 17588807i bk4: 201482a 13956990i bk5: 24a 17598870i bk6: 210176a 13786278i bk7: 20a 17602960i bk8: 208702a 13907531i bk9: 0a 17603019i bk10: 215544a 13768754i bk11: 0a 17601020i bk12: 215992a 13704506i bk13: 0a 17599150i bk14: 213950a 13702228i bk15: 0a 17598540i 
dram_util_bins: 0 0 0 0 0 0 0 0 0 0
dram_eff_bins: 0 0 0 0 0 0 0 0 0 0
mrqq: max=16 avg=3.5521
Memory Partition 5: 
Cache L2_bank_010:
MSHR contents

Cache L2_bank_011:
MSHR contents

In Dram Latency Queue (total = 0): 
DRAM[5]: 16 bks, busW=4 BL=8 CL=12, tRRD=2 tCCD=6, tRCD=12 tRAS=28 tRP=12 tRC=40
n_cmd=17642424 n_nop=17642236 n_act=6 n_pre=0 n_req=91 n_rd=98 n_write=84 bw_util=2.063e-05
n_activity=1401 dram_eff=0.2598
bk0: 6a 17642401i bk1: 8a 17642396i bk2: 0a 17642423i bk3: 0a 17642424i bk4: 20a 17642182i bk5: 24a 17642134i bk6: 20a 17642180i bk7: 20a 17642178i bk8: 0a 17642421i bk9: 0a 17642423i bk10: 0a 17642423i bk11: 0a 17642424i bk12: 0a 17642425i bk13: 0a 17642425i bk14: 0a 17642426i bk15: 0a 17642426i 
dram_util_bins: 0 0 0 0 0 0 0 0 0 0
dram_eff_bins: 0 0 0 0 0 0 0 0 0 0
mrqq: max=3 avg=4.82927e-05

========= L2 cache stats =========
L2_cache_bank[0]: Access = 973177, Miss = 898261, Miss_rate = 0.923, Pending_hits = 28, Reservation_fails = 97445
L2_cache_bank[1]: Access = 162, Miss = 24, Miss_rate = 0.148, Pending_hits = 12, Reservation_fails = 389
L2_cache_bank[2]: Access = 145, Miss = 26, Miss_rate = 0.179, Pending_hits = 6, Reservation_fails = 191
L2_cache_bank[3]: Access = 128, Miss = 24, Miss_rate = 0.188, Pending_hits = 12, Reservation_fails = 376
L2_cache_bank[4]: Access = 160, Miss = 26, Miss_rate = 0.163, Pending_hits = 4, Reservation_fails = 108
L2_cache_bank[5]: Access = 933690, Miss = 853202, Miss_rate = 0.914, Pending_hits = 38, Reservation_fails = 101335
L2_cache_bank[6]: Access = 130, Miss = 26, Miss_rate = 0.200, Pending_hits = 0, Reservation_fails = 0
L2_cache_bank[7]: Access = 132, Miss = 26, Miss_rate = 0.197, Pending_hits = 8, Reservation_fails = 0
L2_cache_bank[8]: Access = 934114, Miss = 852500, Miss_rate = 0.913, Pending_hits = 27, Reservation_fails = 94470
L2_cache_bank[9]: Access = 132, Miss = 26, Miss_rate = 0.197, Pending_hits = 0, Reservation_fails = 0
L2_cache_bank[10]: Access = 132, Miss = 23, Miss_rate = 0.174, Pending_hits = 5, Reservation_fails = 116
L2_cache_bank[11]: Access = 132, Miss = 26, Miss_rate = 0.197, Pending_hits = 0, Reservation_fails = 0
L2_total_cache_accesses = 2842234
L2_total_cache_misses = 2604190
L2_total_cache_miss_rate = 0.9162
L2_total_cache_pending_hits = 140
L2_total_cache_reservation_fails = 294430
L2_total_cache_breakdown:
	L2_cache_stats_breakdown[LOCAL_ACC_R][HIT] = 65773
	L2_cache_stats_breakdown[LOCAL_ACC_R][HIT_RESERVED] = 64
	L2_cache_stats_breakdown[LOCAL_ACC_R][MISS] = 1488983
	L2_cache_stats_breakdown[LOCAL_ACC_R][RESERVATION_FAIL] = 77808
	L2_cache_stats_breakdown[CONST_ACC_R][HIT] = 130
	L2_cache_stats_breakdown[CONST_ACC_R][HIT_RESERVED] = 13
	L2_cache_stats_breakdown[CONST_ACC_R][MISS] = 7
	L2_cache_stats_breakdown[CONST_ACC_R][RESERVATION_FAIL] = 398
	L2_cache_stats_breakdown[GLOBAL_ACC_W][HIT] = 96
	L2_cache_stats_breakdown[GLOBAL_ACC_W][MISS] = 288
	L2_cache_stats_breakdown[GLOBAL_ACC_W][RESERVATION_FAIL] = 44
	L2_cache_stats_breakdown[LOCAL_ACC_W][HIT] = 368
	L2_cache_stats_breakdown[LOCAL_ACC_W][HIT_RESERVED] = 8
	L2_cache_stats_breakdown[LOCAL_ACC_W][MISS] = 383494
	L2_cache_stats_breakdown[LOCAL_ACC_W][RESERVATION_FAIL] = 174677
	L2_cache_stats_breakdown[L1_WRBK_ACC][HIT] = 170599
	L2_cache_stats_breakdown[L1_WRBK_ACC][MISS] = 731317
	L2_cache_stats_breakdown[L1_WRBK_ACC][RESERVATION_FAIL] = 40152
	L2_cache_stats_breakdown[INST_ACC_R][HIT] = 938
	L2_cache_stats_breakdown[INST_ACC_R][HIT_RESERVED] = 55
	L2_cache_stats_breakdown[INST_ACC_R][MISS] = 101
	L2_cache_stats_breakdown[INST_ACC_R][RESERVATION_FAIL] = 1351
L2_cache_data_port_util = 0.008
L2_cache_fill_port_util = 0.065

icnt_total_pkts_mem_to_simt=8164274
icnt_total_pkts_simt_to_mem=7986914
LD_mem_lat_dist  0 0 0 0 0 0 0 0 0 0 0 0 0 0 0 0 0 0 0 0 0 0 0 0 0 0 0
ST_mem_lat_dist  0 0 0 0 0 0 0 0 0 0 0 0 0 0 0 0 0 0 0 0 0 0 0 0 0 0 0
----------------------------Interconnect-DETAILS--------------------------------
Class 0:
Packet latency average = 13.2429
	minimum = 6
	maximum = 388
Network latency average = 11.4432
	minimum = 6
	maximum = 359
Slowest packet = 959714
Flit latency average = 9.08489
	minimum = 6
	maximum = 355
Slowest flit = 3457469
Fragmentation average = 0.03234
	minimum = 0
	maximum = 296
Injected packet rate average = 0.0134433
	minimum = 8.35451e-06 (at node 18)
	maximum = 0.0523178 (at node 15)
Accepted packet rate average = 0.0134433
	minimum = 8.35451e-06 (at node 18)
	maximum = 0.072283 (at node 15)
Injected flit rate average = 0.0446394
	minimum = 3.41775e-05 (at node 18)
	maximum = 0.215391 (at node 15)
Accepted flit rate average= 0.0446394
	minimum = 1.59495e-05 (at node 18)
	maximum = 0.198342 (at node 15)
Injected packet length average = 3.32058
Accepted packet length average = 3.32058
Total in-flight flits = 0 (0 measured)
====== Overall Traffic Statistics ======
====== Traffic class 0 ======
Packet latency average = 14.4154 (2 samples)
	minimum = 6 (2 samples)
	maximum = 593 (2 samples)
Network latency average = 12.2839 (2 samples)
	minimum = 6 (2 samples)
	maximum = 553.5 (2 samples)
Flit latency average = 9.80628 (2 samples)
	minimum = 6 (2 samples)
	maximum = 549.5 (2 samples)
Fragmentation average = 0.0622492 (2 samples)
	minimum = 0 (2 samples)
	maximum = 438.5 (2 samples)
Injected packet rate average = 0.0129942 (2 samples)
	minimum = 5.94264e-06 (2 samples)
	maximum = 0.0462333 (2 samples)
Accepted packet rate average = 0.0129942 (2 samples)
	minimum = 5.94264e-06 (2 samples)
	maximum = 0.073533 (2 samples)
Injected flit rate average = 0.0449157 (2 samples)
	minimum = 1.88542e-05 (2 samples)
	maximum = 0.200782 (2 samples)
Accepted flit rate average = 0.0449157 (2 samples)
	minimum = 1.68017e-05 (2 samples)
	maximum = 0.213111 (2 samples)
Injected packet size average = 3.45661 (2 samples)
Accepted packet size average = 3.45661 (2 samples)
Hops average = 1 (2 samples)
----------------------------END-of-Interconnect-DETAILS-------------------------


gpgpu_simulation_time = 0 days, 7 hrs, 24 min, 59 sec (26699 sec)
gpgpu_simulation_rate = 37421 (inst/sec)
gpgpu_simulation_rate = 500 (cycle/sec)
GPGPU-Sim: synchronize waiting for inactive GPU simulation
GPGPU-Sim API: Stream Manager State
GPGPU-Sim: detected inactive GPU simulation thread
v  =    224.32334900
Lb =     21.34812355
Time (Greeks)   : 17473962.000000 msec

Press ENTER to exit...
