

        *** GPGPU-Sim Simulator Version 3.2.2  [build 0] ***


GPGPU-Sim PTX: simulation mode 0 (can change with PTX_SIM_MODE_FUNC environment variable:
               1=functional simulation only, 0=detailed performance simulator)
GPGPU-Sim: Configuration options:

-network_mode                           1 # Interconnection network mode
-inter_config_file   config_fermi_islip.icnt # Interconnection network config file
-gpgpu_ptx_use_cuobjdump                    1 # Use cuobjdump to extract ptx and sass from binaries
-gpgpu_experimental_lib_support                    0 # Try to extract code from cuda libraries [Broken because of unknown cudaGetExportTable]
-gpgpu_ptx_convert_to_ptxplus                    0 # Convert SASS (native ISA) to ptxplus and run ptxplus
-gpgpu_ptx_force_max_capability                   20 # Force maximum compute capability
-gpgpu_ptx_inst_debug_to_file                    0 # Dump executed instructions' debug information to file
-gpgpu_ptx_inst_debug_file       inst_debug.txt # Executed instructions' debug output file
-gpgpu_ptx_inst_debug_thread_uid                    1 # Thread UID for executed instructions' debug output
-gpgpu_simd_model                       1 # 1 = post-dominator
-gpgpu_shader_core_pipeline          1536:128:32 # shader core pipeline config, i.e., {<nthread>:<warpsize>}
-gpgpu_tex_cache:l1  4:128:24,L:R:m:N:L,F:128:4,128:2 # per-shader L1 texture cache  (READ-ONLY) config  {<nsets>:<bsize>:<assoc>,<rep>:<wr>:<alloc>:<wr_alloc>,<mshr>:<N>:<merge>,<mq>:<rf>}
-gpgpu_const_cache:l1 64:64:2,L:R:f:N:L,A:2:32,4 # per-shader L1 constant memory cache  (READ-ONLY) config  {<nsets>:<bsize>:<assoc>,<rep>:<wr>:<alloc>:<wr_alloc>,<mshr>:<N>:<merge>,<mq>} 
-gpgpu_cache:il1     4:128:4,L:R:f:N:L,A:2:32,4 # shader L1 instruction cache config  {<nsets>:<bsize>:<assoc>,<rep>:<wr>:<alloc>:<wr_alloc>,<mshr>:<N>:<merge>,<mq>} 
-gpgpu_cache:dl1     32:128:4,L:L:m:N:H,A:32:8,8 # per-shader L1 data cache config  {<nsets>:<bsize>:<assoc>,<rep>:<wr>:<alloc>:<wr_alloc>,<mshr>:<N>:<merge>,<mq> | none}
-gpgpu_cache:dl1PrefL1                 none # per-shader L1 data cache config  {<nsets>:<bsize>:<assoc>,<rep>:<wr>:<alloc>:<wr_alloc>,<mshr>:<N>:<merge>,<mq> | none}
-gpgpu_cache:dl1PreShared                 none # per-shader L1 data cache config  {<nsets>:<bsize>:<assoc>,<rep>:<wr>:<alloc>:<wr_alloc>,<mshr>:<N>:<merge>,<mq> | none}
-gmem_skip_L1D                          0 # global memory access skip L1D cache (implements -Xptxas -dlcm=cg, default=no skip)
-gpgpu_perfect_mem                      0 # enable perfect memory mode (no cache miss)
-n_regfile_gating_group                    4 # group of lanes that should be read/written together)
-gpgpu_clock_gated_reg_file                    0 # enable clock gated reg file for power calculations
-gpgpu_clock_gated_lanes                    0 # enable clock gated lanes for power calculations
-gpgpu_shader_registers                32768 # Number of registers per shader core. Limits number of concurrent CTAs. (default 8192)
-gpgpu_shader_cta                       8 # Maximum number of concurrent CTAs in shader (default 8)
-gpgpu_num_cta_barriers                   16 # Maximum number of named barriers per CTA (default 16)
-gpgpu_n_clusters                      15 # number of processing clusters
-gpgpu_n_cores_per_cluster                    1 # number of simd cores per cluster
-gpgpu_n_cluster_ejection_buffer_size                    8 # number of packets in ejection buffer
-gpgpu_n_ldst_response_buffer_size                    2 # number of response packets in ld/st unit ejection buffer
-gpgpu_shmem_size                   16384 # Size of shared memory per shader core (default 16kB)
-gpgpu_shmem_size                   49152 # Size of shared memory per shader core (default 16kB)
-gpgpu_shmem_size_PrefL1                16384 # Size of shared memory per shader core (default 16kB)
-gpgpu_shmem_size_PrefShared                16384 # Size of shared memory per shader core (default 16kB)
-gpgpu_shmem_num_banks                   32 # Number of banks in the shared memory in each shader core (default 16)
-gpgpu_shmem_limited_broadcast                    0 # Limit shared memory to do one broadcast per cycle (default on)
-gpgpu_shmem_warp_parts                    1 # Number of portions a warp is divided into for shared memory bank conflict check 
-gpgpu_warpdistro_shader                   -1 # Specify which shader core to collect the warp size distribution from
-gpgpu_warp_issue_shader                    0 # Specify which shader core to collect the warp issue distribution from
-gpgpu_local_mem_map                    1 # Mapping from local memory space address to simulated GPU physical address space (default = enabled)
-gpgpu_num_reg_banks                   16 # Number of register banks (default = 8)
-gpgpu_reg_bank_use_warp_id                    0 # Use warp ID in mapping registers to banks (default = off)
-gpgpu_operand_collector_num_units_sp                    6 # number of collector units (default = 4)
-gpgpu_operand_collector_num_units_sfu                    8 # number of collector units (default = 4)
-gpgpu_operand_collector_num_units_mem                    2 # number of collector units (default = 2)
-gpgpu_operand_collector_num_units_gen                    0 # number of collector units (default = 0)
-gpgpu_operand_collector_num_in_ports_sp                    2 # number of collector unit in ports (default = 1)
-gpgpu_operand_collector_num_in_ports_sfu                    1 # number of collector unit in ports (default = 1)
-gpgpu_operand_collector_num_in_ports_mem                    1 # number of collector unit in ports (default = 1)
-gpgpu_operand_collector_num_in_ports_gen                    0 # number of collector unit in ports (default = 0)
-gpgpu_operand_collector_num_out_ports_sp                    2 # number of collector unit in ports (default = 1)
-gpgpu_operand_collector_num_out_ports_sfu                    1 # number of collector unit in ports (default = 1)
-gpgpu_operand_collector_num_out_ports_mem                    1 # number of collector unit in ports (default = 1)
-gpgpu_operand_collector_num_out_ports_gen                    0 # number of collector unit in ports (default = 0)
-gpgpu_coalesce_arch                   13 # Coalescing arch (default = 13, anything else is off for now)
-gpgpu_num_sched_per_core                    1 # Number of warp schedulers per core
-gpgpu_max_insn_issue_per_warp                    1 # Max number of instructions that can be issued per warp in one cycle by scheduler
-gpgpu_simt_core_sim_order                    1 # Select the simulation order of cores in a cluster (0=Fix, 1=Round-Robin)
-gpgpu_pipeline_widths        2,1,1,2,1,1,2 # Pipeline widths ID_OC_SP,ID_OC_SFU,ID_OC_MEM,OC_EX_SP,OC_EX_SFU,OC_EX_MEM,EX_WB
-gpgpu_num_sp_units                     2 # Number of SP units (default=1)
-gpgpu_num_sfu_units                    1 # Number of SF units (default=1)
-gpgpu_num_mem_units                    1 # Number if ldst units (default=1) WARNING: not hooked up to anything
-gpgpu_scheduler                      gto # Scheduler configuration: < lrr | gto | two_level_active > If two_level_active:<num_active_warps>:<inner_prioritization>:<outer_prioritization>For complete list of prioritization values see shader.h enum scheduler_prioritization_typeDefault: gto
-gpgpu_dram_scheduler                    1 # 0 = fifo, 1 = FR-FCFS (defaul)
-gpgpu_dram_partition_queues              8:8:8:8 # i2$:$2d:d2$:$2i
-l2_ideal                               0 # Use a ideal L2 cache that always hit
-gpgpu_cache:dl2     64:128:8,L:B:m:W:L,A:32:4,4:0,32 # unified banked L2 data cache config  {<nsets>:<bsize>:<assoc>,<rep>:<wr>:<alloc>:<wr_alloc>,<mshr>:<N>:<merge>,<mq>}
-gpgpu_cache:dl2_texture_only                    0 # L2 cache used for texture only
-gpgpu_n_mem                            6 # number of memory modules (e.g. memory controllers) in gpu
-gpgpu_n_sub_partition_per_mchannel                    2 # number of memory subpartition in each memory module
-gpgpu_n_mem_per_ctrlr                    2 # number of memory chips per memory controller
-gpgpu_memlatency_stat                   14 # track and display latency statistics 0x2 enables MC, 0x4 enables queue logs
-gpgpu_frfcfs_dram_sched_queue_size                   16 # 0 = unlimited (default); # entries per chip
-gpgpu_dram_return_queue_size                  116 # 0 = unlimited (default); # entries per chip
-gpgpu_dram_buswidth                    4 # default = 4 bytes (8 bytes per cycle at DDR)
-gpgpu_dram_burst_length                    8 # Burst length of each DRAM request (default = 4 data bus cycle)
-dram_data_command_freq_ratio                    4 # Frequency ratio between DRAM data bus and command bus (default = 2 times, i.e. DDR)
-gpgpu_dram_timing_opt nbk=16:CCD=2:RRD=6:RCD=12:RAS=28:RP=12:RC=40: CL=12:WL=4:CDLR=5:WR=12:nbkgrp=4:CCDL=3:RTPL=2 # DRAM timing parameters = {nbk:tCCD:tRRD:tRCD:tRAS:tRP:tRC:CL:WL:tCDLR:tWR:nbkgrp:tCCDL:tRTPL}
-rop_latency                          120 # ROP queue latency (default 85)
-dram_latency                         100 # DRAM latency (default 30)
-gpgpu_mem_addr_mapping dramid@8;00000000.00000000.00000000.00000000.0000RRRR.RRRRRRRR.BBBCCCCB.CCSSSSSS # mapping memory address to dram model {dramid@<start bit>;<memory address map>}
-gpgpu_mem_addr_test                    0 # run sweep test to check address mapping for aliased address
-gpgpu_mem_address_mask                    1 # 0 = old addressing mask, 1 = new addressing mask, 2 = new add. mask + flipped bank sel and chip sel bits
-gpuwattch_xml_file  gpuwattch_gtx480.xml # GPUWattch XML file
-power_simulation_enabled                    1 # Turn on power simulator (1=On, 0=Off)
-power_per_cycle_dump                    0 # Dump detailed power output each cycle
-power_trace_enabled                    0 # produce a file for the power trace (1=On, 0=Off)
-power_trace_zlevel                     6 # Compression level of the power trace output log (0=no comp, 9=highest)
-steady_power_levels_enabled                    0 # produce a file for the steady power levels (1=On, 0=Off)
-steady_state_definition                  8:4 # allowed deviation:number of samples
-gpgpu_max_cycle                        0 # terminates gpu simulation early (0 = no limit)
-gpgpu_max_insn                         0 # terminates gpu simulation early (0 = no limit)
-gpgpu_max_cta                          0 # terminates gpu simulation early (0 = no limit)
-gpgpu_runtime_stat                   500 # display runtime statistics such as dram utilization {<freq>:<flag>}
-liveness_message_freq                    1 # Minimum number of seconds between simulation liveness messages (0 = always print)
-gpgpu_flush_l1_cache                    0 # Flush L1 cache at the end of each kernel call
-gpgpu_flush_l2_cache                    0 # Flush L2 cache at the end of each kernel call
-gpgpu_deadlock_detect                    1 # Stop the simulation at deadlock (1=on (default), 0=off)
-gpgpu_ptx_instruction_classification                    0 # if enabled will classify ptx instruction types per kernel (Max 255 kernels now)
-gpgpu_ptx_sim_mode                     0 # Select between Performance (default) or Functional simulation (1)
-gpgpu_clock_domains 700.0:700.0:700.0:924.0 # Clock Domain Frequencies in MhZ {<Core Clock>:<ICNT Clock>:<L2 Clock>:<DRAM Clock>}
-gpgpu_max_concurrent_kernel                    8 # maximum kernels that can run concurrently on GPU
-gpgpu_cflog_interval                    0 # Interval between each snapshot in control flow logger
-visualizer_enabled                     0 # Turn on visualizer output (1=On, 0=Off)
-visualizer_outputfile                 NULL # Specifies the output log file for visualizer
-visualizer_zlevel                      6 # Compression level of the visualizer output log (0=no comp, 9=highest)
-trace_enabled                          0 # Turn on traces
-trace_components                    none # comma seperated list of traces to enable. Complete list found in trace_streams.tup. Default none
-trace_sampling_core                    0 # The core which is printed using CORE_DPRINTF. Default 0
-trace_sampling_memory_partition                   -1 # The memory partition which is printed using MEMPART_DPRINTF. Default -1 (i.e. all)
-enable_ptx_file_line_stats                    1 # Turn on PTX source line statistic profiling. (1 = On)
-ptx_line_stats_filename gpgpu_inst_stats.txt # Output file for PTX source line statistics.
-save_embedded_ptx                      0 # saves ptx files embedded in binary as <n>.ptx
-keep                                   0 # keep intermediate files created by GPGPU-Sim when interfacing with external programs
-gpgpu_ptx_save_converted_ptxplus                    0 # Saved converted ptxplus to a file
-ptx_opcode_latency_int         4,13,4,5,145 # Opcode latencies for integers <ADD,MAX,MUL,MAD,DIV>Default 1,1,19,25,145
-ptx_opcode_latency_fp          4,13,4,5,39 # Opcode latencies for single precision floating points <ADD,MAX,MUL,MAD,DIV>Default 1,1,1,1,30
-ptx_opcode_latency_dp         8,19,8,8,330 # Opcode latencies for double precision floating points <ADD,MAX,MUL,MAD,DIV>Default 8,8,8,8,335
-ptx_opcode_initiation_int            1,2,2,1,8 # Opcode initiation intervals for integers <ADD,MAX,MUL,MAD,DIV>Default 1,1,4,4,32
-ptx_opcode_initiation_fp            1,2,1,1,4 # Opcode initiation intervals for single precision floating points <ADD,MAX,MUL,MAD,DIV>Default 1,1,1,1,5
-ptx_opcode_initiation_dp         8,16,8,8,130 # Opcode initiation intervals for double precision floating points <ADD,MAX,MUL,MAD,DIV>Default 8,8,8,8,130
ESHA: SIMD Width was found to be : 32
DRAM Timing Options:
nbk                                    16 # number of banks
CCD                                     2 # column to column delay
RRD                                     6 # minimal delay between activation of rows in different banks
RCD                                    12 # row to column delay
RAS                                    28 # time needed to activate row
RP                                     12 # time needed to precharge (deactivate) row
RC                                     40 # row cycle time
CDLR                                    5 # switching from write to read (changes tWTR)
WR                                     12 # last data-in to row precharge
CL                                     12 # CAS latency
WL                                      4 # Write latency
nbkgrp                                  4 # number of bank groups
CCDL                                    3 # column to column delay between accesses to different bank groups
RTPL                                    2 # read to precharge delay between accesses to different bank groups
Total number of memory sub partition = 12
addr_dec_mask[CHIP]  = 0000000000000000 	high:64 low:0
addr_dec_mask[BK]    = 000000000000e100 	high:16 low:8
addr_dec_mask[ROW]   = 000000000fff0000 	high:28 low:16
addr_dec_mask[COL]   = 0000000000001eff 	high:13 low:0
addr_dec_mask[BURST] = 000000000000003f 	high:6 low:0
sub_partition_id_mask = 0000000000000100
GPGPU-Sim uArch: clock freqs: 700000000.000000:700000000.000000:700000000.000000:924000000.000000
GPGPU-Sim uArch: clock periods: 0.00000000142857142857:0.00000000142857142857:0.00000000142857142857:0.00000000108225108225
ESHA_CHANGED: in shader config simd is  32 
*** Initializing Memory Statistics ***
GPGPU-Sim uArch: interconnect node map (shaderID+MemID to icntID)
GPGPU-Sim uArch: Memory nodes ID start from index: 15
GPGPU-Sim uArch:    0   1   2   3   4
GPGPU-Sim uArch:    5   6   7   8   9
GPGPU-Sim uArch:   10  11  12  13  14
GPGPU-Sim uArch:   15  16  17  18  19
GPGPU-Sim uArch:   20  21  22  23  24
GPGPU-Sim uArch:   25  26
GPGPU-Sim uArch: interconnect node reverse map (icntID to shaderID+MemID)
GPGPU-Sim uArch: Memory nodes start from ID: 15
GPGPU-Sim uArch:    0   1   2   3   4
GPGPU-Sim uArch:    5   6   7   8   9
GPGPU-Sim uArch:   10  11  12  13  14
GPGPU-Sim uArch:   15  16  17  18  19
GPGPU-Sim uArch:   20  21  22  23  24
GPGPU-Sim uArch:   25  26
36731beff5187ff21689d20a58a6b791  /home/kishore/project_source/gpu_class_proj/gpgpusim-benchmarks-master/bin/release/LIB
GPGPU-Sim uArch: performance model initialization complete.
GPGPU-Sim PTX: __cudaRegisterFatBinary, fat_cubin_handle = 1, filename=libor.cu
self exe links to: /home/kishore/project_source/gpu_class_proj/gpgpusim-benchmarks-master/bin/release/LIB
Running md5sum using "md5sum /home/kishore/project_source/gpu_class_proj/gpgpusim-benchmarks-master/bin/release/LIB "
Running cuobjdump using "$CUDA_INSTALL_PATH/bin/cuobjdump -ptx -elf -sass /home/kishore/project_source/gpu_class_proj/gpgpusim-benchmarks-master/bin/release/LIB > _cuobjdump_complete_output_BnqUWF"
Parsing file _cuobjdump_complete_output_BnqUWF
######### cuobjdump parser ########
## Adding new section PTX
Adding ptx filename: _cuobjdump_1.ptx
Adding arch: sm_10
Adding identifier: libor.cu
## Adding new section ELF
Adding arch: sm_10
Adding identifier: libor.cu
## Adding new section ELF
Adding arch: sm_20
Adding identifier: libor.cu
## Adding new section PTX
Adding ptx filename: _cuobjdump_2.ptx
Adding arch: sm_20
Adding identifier: libor.cu
Done parsing!!!
GPGPU-Sim PTX: __cudaRegisterFunction _Z29Pathcalc_Portfolio_KernelGPU2Pf : hostFun 0x0x403b30, fat_cubin_handle = 1
GPGPU-Sim PTX: allocating stack frame region for .param "__cudaparmf1__Z9path_calcPfS_" from 0x0 to 0x8
GPGPU-Sim PTX: allocating stack frame region for .param "__cudaparmf2__Z9path_calcPfS_" from 0x8 to 0x10
GPGPU-Sim PTX: allocating stack frame region for .param "__cudaparmf1__Z12path_calc_b1PfS_S_" from 0x0 to 0x8
GPGPU-Sim PTX: allocating stack frame region for .param "__cudaparmf2__Z12path_calc_b1PfS_S_" from 0x8 to 0x10
GPGPU-Sim PTX: allocating stack frame region for .param "__cudaparmf3__Z12path_calc_b1PfS_S_" from 0x10 to 0x18
GPGPU-Sim PTX: allocating stack frame region for .param "__cudaparmf1__Z12path_calc_b2PfS_S_" from 0x0 to 0x8
GPGPU-Sim PTX: allocating stack frame region for .param "__cudaparmf2__Z12path_calc_b2PfS_S_" from 0x8 to 0x10
GPGPU-Sim PTX: allocating stack frame region for .param "__cudaparmf3__Z12path_calc_b2PfS_S_" from 0x10 to 0x18
GPGPU-Sim PTX: allocating stack frame region for .param "__cudaretf__Z11portfolio_bPfS_" from 0x0 to 0x4
GPGPU-Sim PTX: allocating stack frame region for .param "__cudaparmf1__Z11portfolio_bPfS_" from 0x4 to 0xc
GPGPU-Sim PTX: allocating stack frame region for .param "__cudaparmf2__Z11portfolio_bPfS_" from 0xc to 0x14
GPGPU-Sim PTX: allocating stack frame region for .param "__cudaretf__Z9portfolioPf" from 0x0 to 0x4
GPGPU-Sim PTX: allocating stack frame region for .param "__cudaparmf1__Z9portfolioPf" from 0x4 to 0xc
GPGPU-Sim PTX: allocating constant region for "N" from 0x100 to 0x104 (global memory space) 1
GPGPU-Sim PTX: allocating constant region for "Nmat" from 0x104 to 0x108 (global memory space) 2
GPGPU-Sim PTX: allocating constant region for "delta" from 0x108 to 0x10c (global memory space) 3
GPGPU-Sim PTX: allocating constant region for "lambda" from 0x180 to 0x2c0 (global memory space) 4
GPGPU-Sim PTX: instruction assembly for function '_Z9path_calcPfS_'...   done.
GPGPU-Sim PTX: finding reconvergence points for '_Z9path_calcPfS_'...
GPGPU-Sim PTX: Finding dominators for '_Z9path_calcPfS_'...
GPGPU-Sim PTX: Finding immediate dominators for '_Z9path_calcPfS_'...
GPGPU-Sim PTX: Finding postdominators for '_Z9path_calcPfS_'...
GPGPU-Sim PTX: Finding immediate postdominators for '_Z9path_calcPfS_'...
GPGPU-Sim PTX: pre-decoding instructions for '_Z9path_calcPfS_'...
GPGPU-Sim PTX: reconvergence points for _Z9path_calcPfS_...
GPGPU-Sim PTX:  1 (potential) branch divergence @  PC=0x038 (_1.ptx:81) @%p1 bra $Lt_0_2306;
GPGPU-Sim PTX:    immediate post dominator      @  PC=0x218 (_1.ptx:153) ret;
GPGPU-Sim PTX:  2 (potential) branch divergence @  PC=0x0a8 (_1.ptx:99) @%p2 bra $Lt_0_3074;
GPGPU-Sim PTX:    immediate post dominator      @  PC=0x1f8 (_1.ptx:147) mov.s32 %r5, %r7;
GPGPU-Sim PTX:  3 (potential) branch divergence @  PC=0x1f0 (_1.ptx:145) @%p3 bra $Lt_0_3586;
GPGPU-Sim PTX:    immediate post dominator      @  PC=0x1f8 (_1.ptx:147) mov.s32 %r5, %r7;
GPGPU-Sim PTX:  4 (potential) branch divergence @  PC=0x210 (_1.ptx:150) @%p4 bra $Lt_0_2818;
GPGPU-Sim PTX:    immediate post dominator      @  PC=0x218 (_1.ptx:153) ret;
GPGPU-Sim PTX: ... end of reconvergence points for _Z9path_calcPfS_
GPGPU-Sim PTX: ... done pre-decoding instructions for '_Z9path_calcPfS_'.
GPGPU-Sim PTX: instruction assembly for function '_Z12path_calc_b1PfS_S_'...   done.
GPGPU-Sim PTX: finding reconvergence points for '_Z12path_calc_b1PfS_S_'...
GPGPU-Sim PTX: Finding dominators for '_Z12path_calc_b1PfS_S_'...
GPGPU-Sim PTX: Finding immediate dominators for '_Z12path_calc_b1PfS_S_'...
GPGPU-Sim PTX: Finding postdominators for '_Z12path_calc_b1PfS_S_'...
GPGPU-Sim PTX: Finding immediate postdominators for '_Z12path_calc_b1PfS_S_'...
GPGPU-Sim PTX: pre-decoding instructions for '_Z12path_calc_b1PfS_S_'...
GPGPU-Sim PTX: reconvergence points for _Z12path_calc_b1PfS_S_...
GPGPU-Sim PTX:  1 (potential) branch divergence @  PC=0x268 (_1.ptx:175) @%p1 bra $Lt_1_3330;
GPGPU-Sim PTX:    immediate post dominator      @  PC=0x2d0 (_1.ptx:192) ld.const.s32 %r6, [Nmat];
GPGPU-Sim PTX:  2 (potential) branch divergence @  PC=0x2c8 (_1.ptx:190) @%p2 bra $Lt_1_3842;
GPGPU-Sim PTX:    immediate post dominator      @  PC=0x2d0 (_1.ptx:192) ld.const.s32 %r6, [Nmat];
GPGPU-Sim PTX:  3 (potential) branch divergence @  PC=0x2e8 (_1.ptx:195) @%p3 bra $Lt_1_4354;
GPGPU-Sim PTX:    immediate post dominator      @  PC=0x4f8 (_1.ptx:274) ret;
GPGPU-Sim PTX:  4 (potential) branch divergence @  PC=0x350 (_1.ptx:212) @%p4 bra $Lt_1_5122;
GPGPU-Sim PTX:    immediate post dominator      @  PC=0x4d8 (_1.ptx:268) mov.s32 %r9, %r11;
GPGPU-Sim PTX:  5 (potential) branch divergence @  PC=0x4d0 (_1.ptx:266) @%p5 bra $Lt_1_5634;
GPGPU-Sim PTX:    immediate post dominator      @  PC=0x4d8 (_1.ptx:268) mov.s32 %r9, %r11;
GPGPU-Sim PTX:  6 (potential) branch divergence @  PC=0x4f0 (_1.ptx:271) @%p6 bra $Lt_1_4866;
GPGPU-Sim PTX:    immediate post dominator      @  PC=0x4f8 (_1.ptx:274) ret;
GPGPU-Sim PTX: ... end of reconvergence points for _Z12path_calc_b1PfS_S_
GPGPU-Sim PTX: ... done pre-decoding instructions for '_Z12path_calc_b1PfS_S_'.
GPGPU-Sim PTX: instruction assembly for function '_Z12path_calc_b2PfS_S_'...   done.
GPGPU-Sim PTX: finding reconvergence points for '_Z12path_calc_b2PfS_S_'...
GPGPU-Sim PTX: Finding dominators for '_Z12path_calc_b2PfS_S_'...
GPGPU-Sim PTX: Finding immediate dominators for '_Z12path_calc_b2PfS_S_'...
GPGPU-Sim PTX: Finding postdominators for '_Z12path_calc_b2PfS_S_'...
GPGPU-Sim PTX: Finding immediate postdominators for '_Z12path_calc_b2PfS_S_'...
GPGPU-Sim PTX: pre-decoding instructions for '_Z12path_calc_b2PfS_S_'...
GPGPU-Sim PTX: reconvergence points for _Z12path_calc_b2PfS_S_...
GPGPU-Sim PTX:  1 (potential) branch divergence @  PC=0x548 (_1.ptx:297) @%p1 bra $Lt_2_2306;
GPGPU-Sim PTX:    immediate post dominator      @  PC=0x730 (_1.ptx:368) ret;
GPGPU-Sim PTX:  2 (potential) branch divergence @  PC=0x580 (_1.ptx:306) @%p2 bra $Lt_2_3074;
GPGPU-Sim PTX:    immediate post dominator      @  PC=0x710 (_1.ptx:362) sub.s32 %r3, %r3, 1;
GPGPU-Sim PTX:  3 (potential) branch divergence @  PC=0x708 (_1.ptx:360) @%p3 bra $Lt_2_3586;
GPGPU-Sim PTX:    immediate post dominator      @  PC=0x710 (_1.ptx:362) sub.s32 %r3, %r3, 1;
GPGPU-Sim PTX:  4 (potential) branch divergence @  PC=0x728 (_1.ptx:365) @%p4 bra $Lt_2_2818;
GPGPU-Sim PTX:    immediate post dominator      @  PC=0x730 (_1.ptx:368) ret;
GPGPU-Sim PTX: ... end of reconvergence points for _Z12path_calc_b2PfS_S_
GPGPU-Sim PTX: ... done pre-decoding instructions for '_Z12path_calc_b2PfS_S_'.
GPGPU-Sim PTX: allocating constant region for "Nopt" from 0x2c0 to 0x2c4 (global memory space) 5
GPGPU-Sim PTX: allocating constant region for "maturities" from 0x300 to 0x33c (global memory space) 6
GPGPU-Sim PTX: allocating constant region for "swaprates" from 0x380 to 0x3bc (global memory space) 7
GPGPU-Sim PTX: allocating stack frame region for .local "__cuda___cuda_local_var_34164_9_non_const_B_16440" from 0x80 to 0x120
GPGPU-Sim PTX: allocating stack frame region for .local "__cuda___cuda_local_var_34164_16_non_const_S_176600" from 0x180 to 0x220
GPGPU-Sim PTX: allocating stack frame region for .local "__cuda___cuda_local_var_34164_23_non_const_B_b_336760" from 0x280 to 0x320
GPGPU-Sim PTX: allocating stack frame region for .local "__cuda___cuda_local_var_34164_32_non_const_S_b_496920" from 0x380 to 0x420
GPGPU-Sim PTX: instruction assembly for function '_Z11portfolio_bPfS_'...   done.
GPGPU-Sim PTX: finding reconvergence points for '_Z11portfolio_bPfS_'...
GPGPU-Sim PTX: Finding dominators for '_Z11portfolio_bPfS_'...
GPGPU-Sim PTX: Finding immediate dominators for '_Z11portfolio_bPfS_'...
GPGPU-Sim PTX: Finding postdominators for '_Z11portfolio_bPfS_'...
GPGPU-Sim PTX: Finding immediate postdominators for '_Z11portfolio_bPfS_'...
GPGPU-Sim PTX: pre-decoding instructions for '_Z11portfolio_bPfS_'...
GPGPU-Sim PTX: reconvergence points for _Z11portfolio_bPfS_...
GPGPU-Sim PTX:  1 (potential) branch divergence @  PC=0x780 (_1.ptx:397) @!%p1 bra $Lt_3_8962;
GPGPU-Sim PTX:    immediate post dominator      @  PC=0x868 (_1.ptx:433) @!%p1 bra $Lt_3_9986;
GPGPU-Sim PTX:  2 (potential) branch divergence @  PC=0x860 (_1.ptx:431) @%p2 bra $Lt_3_9474;
GPGPU-Sim PTX:    immediate post dominator      @  PC=0x868 (_1.ptx:433) @!%p1 bra $Lt_3_9986;
GPGPU-Sim PTX:  3 (potential) branch divergence @  PC=0x868 (_1.ptx:433) @!%p1 bra $Lt_3_9986;
GPGPU-Sim PTX:    immediate post dominator      @  PC=0x8e0 (_1.ptx:453) ld.const.s32 %r11, [Nopt];
GPGPU-Sim PTX:  4 (potential) branch divergence @  PC=0x8d8 (_1.ptx:451) @%p3 bra $Lt_3_10498;
GPGPU-Sim PTX:    immediate post dominator      @  PC=0x8e0 (_1.ptx:453) ld.const.s32 %r11, [Nopt];
GPGPU-Sim PTX:  5 (potential) branch divergence @  PC=0x8f8 (_1.ptx:456) @%p4 bra $Lt_3_17666;
GPGPU-Sim PTX:    immediate post dominator      @  PC=0xa80 (_1.ptx:515) sub.s32 %r17, %r3, 1;
GPGPU-Sim PTX:  6 (potential) branch divergence @  PC=0x9c8 (_1.ptx:485) @!%p5 bra $Lt_3_11778;
GPGPU-Sim PTX:    immediate post dominator      @  PC=0xa30 (_1.ptx:502) add.s32 %r14, %r14, 1;
GPGPU-Sim PTX:  7 (potential) branch divergence @  PC=0xa50 (_1.ptx:506) @%p6 bra $Lt_3_11522;
GPGPU-Sim PTX:    immediate post dominator      @  PC=0xa58 (_1.ptx:507) bra.uni $Lt_3_11010;
GPGPU-Sim PTX:  8 (potential) branch divergence @  PC=0xa58 (_1.ptx:507) bra.uni $Lt_3_11010;
GPGPU-Sim PTX:    immediate post dominator      @  PC=0xa80 (_1.ptx:515) sub.s32 %r17, %r3, 1;
GPGPU-Sim PTX:  9 (potential) branch divergence @  PC=0xa98 (_1.ptx:518) @%p7 bra $Lt_3_12546;
GPGPU-Sim PTX:    immediate post dominator      @  PC=0xc60 (_1.ptx:583) mov.s32 %r22, 0;
GPGPU-Sim PTX: 10 (potential) branch divergence @  PC=0xba0 (_1.ptx:555) @%p8 bra $Lt_3_13314;
GPGPU-Sim PTX:    immediate post dominator      @  PC=0xc20 (_1.ptx:574) sub.s32 %r6, %r6, 1;
GPGPU-Sim PTX: 11 (potential) branch divergence @  PC=0xc58 (_1.ptx:581) @%p9 bra $Lt_3_13058;
GPGPU-Sim PTX:    immediate post dominator      @  PC=0xc60 (_1.ptx:583) mov.s32 %r22, 0;
GPGPU-Sim PTX: 12 (potential) branch divergence @  PC=0xc70 (_1.ptx:585) @!%p10 bra $Lt_3_18178;
GPGPU-Sim PTX:    immediate post dominator      @  PC=0xd18 (_1.ptx:612) mul.f32 %f10, %f10, %f3;
GPGPU-Sim PTX: 13 (potential) branch divergence @  PC=0xd00 (_1.ptx:606) @%p11 bra $Lt_3_14594;
GPGPU-Sim PTX:    immediate post dominator      @  PC=0xd08 (_1.ptx:607) bra.uni $Lt_3_14082;
GPGPU-Sim PTX: 14 (potential) branch divergence @  PC=0xd08 (_1.ptx:607) bra.uni $Lt_3_14082;
GPGPU-Sim PTX:    immediate post dominator      @  PC=0xd18 (_1.ptx:612) mul.f32 %f10, %f10, %f3;
GPGPU-Sim PTX: 15 (potential) branch divergence @  PC=0xd20 (_1.ptx:613) @!%p10 bra $Lt_3_15106;
GPGPU-Sim PTX:    immediate post dominator      @  PC=0xdd8 (_1.ptx:641) mov.s32 %r14, %r1;
GPGPU-Sim PTX: 16 (potential) branch divergence @  PC=0xdd0 (_1.ptx:638) @%p12 bra $Lt_3_15618;
GPGPU-Sim PTX:    immediate post dominator      @  PC=0xdd8 (_1.ptx:641) mov.s32 %r14, %r1;
GPGPU-Sim PTX: 17 (potential) branch divergence @  PC=0xde8 (_1.ptx:643) @%p13 bra $Lt_3_16130;
GPGPU-Sim PTX:    immediate post dominator      @  PC=0xe50 (_1.ptx:661) mov.f32 %f54, %f10;
GPGPU-Sim PTX: 18 (potential) branch divergence @  PC=0xe48 (_1.ptx:658) @%p14 bra $Lt_3_16642;
GPGPU-Sim PTX:    immediate post dominator      @  PC=0xe50 (_1.ptx:661) mov.f32 %f54, %f10;
GPGPU-Sim PTX: ... end of reconvergence points for _Z11portfolio_bPfS_
GPGPU-Sim PTX: ... done pre-decoding instructions for '_Z11portfolio_bPfS_'.
GPGPU-Sim PTX: allocating stack frame region for .local "__cuda___cuda_local_var_34227_27_non_const_B_01080" from 0x80 to 0x120
GPGPU-Sim PTX: allocating stack frame region for .local "__cuda___cuda_local_var_34227_34_non_const_S_1601240" from 0x180 to 0x220
GPGPU-Sim PTX: instruction assembly for function '_Z9portfolioPf'...   done.
GPGPU-Sim PTX: finding reconvergence points for '_Z9portfolioPf'...
GPGPU-Sim PTX: Finding dominators for '_Z9portfolioPf'...
GPGPU-Sim PTX: Finding immediate dominators for '_Z9portfolioPf'...
GPGPU-Sim PTX: Finding postdominators for '_Z9portfolioPf'...
GPGPU-Sim PTX: Finding immediate postdominators for '_Z9portfolioPf'...
GPGPU-Sim PTX: pre-decoding instructions for '_Z9portfolioPf'...
GPGPU-Sim PTX: reconvergence points for _Z9portfolioPf...
GPGPU-Sim PTX:  1 (potential) branch divergence @  PC=0xe90 (_1.ptx:684) @%p1 bra $Lt_4_4098;
GPGPU-Sim PTX:    immediate post dominator      @  PC=0xf90 (_1.ptx:723) cvta.local.u64 %rd3, __cuda___cuda_local_var_34227_27_non_const_B_01080;
GPGPU-Sim PTX:  2 (potential) branch divergence @  PC=0xf88 (_1.ptx:721) @%p2 bra $Lt_4_4610;
GPGPU-Sim PTX:    immediate post dominator      @  PC=0xf90 (_1.ptx:723) cvta.local.u64 %rd3, __cuda___cuda_local_var_34227_27_non_const_B_01080;
GPGPU-Sim PTX:  3 (potential) branch divergence @  PC=0xfb8 (_1.ptx:728) @%p3 bra $Lt_4_7426;
GPGPU-Sim PTX:    immediate post dominator      @  PC=0x10d0 (_1.ptx:769) mov.u32 %r13, 0;
GPGPU-Sim PTX:  4 (potential) branch divergence @  PC=0x10b8 (_1.ptx:764) @%p5 bra $Lt_4_5634;
GPGPU-Sim PTX:    immediate post dominator      @  PC=0x10c0 (_1.ptx:765) bra.uni $Lt_4_5122;
GPGPU-Sim PTX:  5 (potential) branch divergence @  PC=0x10c0 (_1.ptx:765) bra.uni $Lt_4_5122;
GPGPU-Sim PTX:    immediate post dominator      @  PC=0x10d0 (_1.ptx:769) mov.u32 %r13, 0;
GPGPU-Sim PTX:  6 (potential) branch divergence @  PC=0x10e0 (_1.ptx:771) @%p6 bra $Lt_4_7682;
GPGPU-Sim PTX:    immediate post dominator      @  PC=0x1188 (_1.ptx:798) mul.f32 %f16, %f6, %f3;
GPGPU-Sim PTX:  7 (potential) branch divergence @  PC=0x1170 (_1.ptx:792) @%p7 bra $Lt_4_6658;
GPGPU-Sim PTX:    immediate post dominator      @  PC=0x1178 (_1.ptx:793) bra.uni $Lt_4_6146;
GPGPU-Sim PTX:  8 (potential) branch divergence @  PC=0x1178 (_1.ptx:793) bra.uni $Lt_4_6146;
GPGPU-Sim PTX:    immediate post dominator      @  PC=0x1188 (_1.ptx:798) mul.f32 %f16, %f6, %f3;
GPGPU-Sim PTX: ... end of reconvergence points for _Z9portfolioPf
GPGPU-Sim PTX: ... done pre-decoding instructions for '_Z9portfolioPf'.
GPGPU-Sim PTX: allocating stack frame region for .local "__cuda___cuda_local_var_34164_32_non_const_S_b_161416" from 0x0 to 0xa0
GPGPU-Sim PTX: allocating stack frame region for .local "__cuda___cuda_local_var_34164_16_non_const_S_1761576" from 0x100 to 0x1a0
GPGPU-Sim PTX: allocating stack frame region for .local "__cuda___cuda_local_var_34265_16_non_const_L2_3361736" from 0x200 to 0x3540
GPGPU-Sim PTX: allocating stack frame region for .local "__cuda___cuda_local_var_34164_23_non_const_B_b_1345614856" from 0x3580 to 0x3620
GPGPU-Sim PTX: allocating stack frame region for .local "__cuda___cuda_local_var_34164_9_non_const_B_1361615016" from 0x3680 to 0x3720
GPGPU-Sim PTX: allocating stack frame region for .local "__cuda___cuda_local_var_34265_26_non_const_z_1377615176" from 0x3780 to 0x38c0
GPGPU-Sim PTX: allocating stack frame region for .local "__cuda___cuda_local_var_34265_9_non_const_L_1409615496" from 0x3900 to 0x3a40
GPGPU-Sim PTX: instruction assembly for function '_Z28Pathcalc_Portfolio_KernelGPUPfS_'...   done.
GPGPU-Sim PTX: finding reconvergence points for '_Z28Pathcalc_Portfolio_KernelGPUPfS_'...
GPGPU-Sim PTX: Finding dominators for '_Z28Pathcalc_Portfolio_KernelGPUPfS_'...
GPGPU-Sim PTX: Finding immediate dominators for '_Z28Pathcalc_Portfolio_KernelGPUPfS_'...
GPGPU-Sim PTX: Finding postdominators for '_Z28Pathcalc_Portfolio_KernelGPUPfS_'...
GPGPU-Sim PTX: Finding immediate postdominators for '_Z28Pathcalc_Portfolio_KernelGPUPfS_'...
GPGPU-Sim PTX: pre-decoding instructions for '_Z28Pathcalc_Portfolio_KernelGPUPfS_'...
GPGPU-Sim PTX: reconvergence points for _Z28Pathcalc_Portfolio_KernelGPUPfS_...
GPGPU-Sim PTX:  1 (potential) branch divergence @  PC=0x11e0 (_1.ptx:831) @%p1 bra $Lt_5_16130;
GPGPU-Sim PTX:    immediate post dominator      @  PC=0x1e48 (_1.ptx:1310) exit;
GPGPU-Sim PTX:  2 (potential) branch divergence @  PC=0x1320 (_1.ptx:873) @!%p2 bra $Lt_5_17922;
GPGPU-Sim PTX:    immediate post dominator      @  PC=0x1400 (_1.ptx:911) @!%p3 bra $Lt_5_18946;
GPGPU-Sim PTX:  3 (potential) branch divergence @  PC=0x1390 (_1.ptx:891) @%p9 bra $Lt_5_17410;
GPGPU-Sim PTX:    immediate post dominator      @  PC=0x1398 (_1.ptx:894) @!%p2 bra $Lt_5_17922;
GPGPU-Sim PTX:  4 (potential) branch divergence @  PC=0x1398 (_1.ptx:894) @!%p2 bra $Lt_5_17922;
GPGPU-Sim PTX:    immediate post dominator      @  PC=0x1400 (_1.ptx:911) @!%p3 bra $Lt_5_18946;
GPGPU-Sim PTX:  5 (potential) branch divergence @  PC=0x13f8 (_1.ptx:909) @%p10 bra $Lt_5_18434;
GPGPU-Sim PTX:    immediate post dominator      @  PC=0x1400 (_1.ptx:911) @!%p3 bra $Lt_5_18946;
GPGPU-Sim PTX:  6 (potential) branch divergence @  PC=0x1400 (_1.ptx:911) @!%p3 bra $Lt_5_18946;
GPGPU-Sim PTX:    immediate post dominator      @  PC=0x1610 (_1.ptx:989) @!%p6 bra $Lt_5_22018;
GPGPU-Sim PTX:  7 (potential) branch divergence @  PC=0x1438 (_1.ptx:921) @%p11 bra $Lt_5_19714;
GPGPU-Sim PTX:    immediate post dominator      @  PC=0x15f8 (_1.ptx:984) mov.s32 %r29, %r31;
GPGPU-Sim PTX:  8 (potential) branch divergence @  PC=0x15f0 (_1.ptx:982) @%p12 bra $Lt_5_20226;
GPGPU-Sim PTX:    immediate post dominator      @  PC=0x15f8 (_1.ptx:984) mov.s32 %r29, %r31;
GPGPU-Sim PTX:  9 (potential) branch divergence @  PC=0x1608 (_1.ptx:986) @%p13 bra $Lt_5_19458;
GPGPU-Sim PTX:    immediate post dominator      @  PC=0x1610 (_1.ptx:989) @!%p6 bra $Lt_5_22018;
GPGPU-Sim PTX: 10 (potential) branch divergence @  PC=0x1610 (_1.ptx:989) @!%p6 bra $Lt_5_22018;
GPGPU-Sim PTX:    immediate post dominator      @  PC=0x1770 (_1.ptx:1045) @!%p4 bra $Lt_5_33282;
GPGPU-Sim PTX: 11 (potential) branch divergence @  PC=0x16f0 (_1.ptx:1023) @%p14 bra $Lt_5_21506;
GPGPU-Sim PTX:    immediate post dominator      @  PC=0x16f8 (_1.ptx:1025) @!%p6 bra $Lt_5_22018;
GPGPU-Sim PTX: 12 (potential) branch divergence @  PC=0x16f8 (_1.ptx:1025) @!%p6 bra $Lt_5_22018;
GPGPU-Sim PTX:    immediate post dominator      @  PC=0x1770 (_1.ptx:1045) @!%p4 bra $Lt_5_33282;
GPGPU-Sim PTX: 13 (potential) branch divergence @  PC=0x1768 (_1.ptx:1043) @%p15 bra $Lt_5_22530;
GPGPU-Sim PTX:    immediate post dominator      @  PC=0x1770 (_1.ptx:1045) @!%p4 bra $Lt_5_33282;
GPGPU-Sim PTX: 14 (potential) branch divergence @  PC=0x1770 (_1.ptx:1045) @!%p4 bra $Lt_5_33282;
GPGPU-Sim PTX:    immediate post dominator      @  PC=0x18c0 (_1.ptx:1096) @!%p8 bra $Lt_5_24578;
GPGPU-Sim PTX: 15 (potential) branch divergence @  PC=0x1820 (_1.ptx:1070) @!%p16 bra $Lt_5_23810;
GPGPU-Sim PTX:    immediate post dominator      @  PC=0x1888 (_1.ptx:1087) add.s32 %r46, %r46, 1;
GPGPU-Sim PTX: 16 (potential) branch divergence @  PC=0x18a8 (_1.ptx:1091) @%p17 bra $Lt_5_23554;
GPGPU-Sim PTX:    immediate post dominator      @  PC=0x18b0 (_1.ptx:1092) bra.uni $Lt_5_23042;
GPGPU-Sim PTX: 17 (potential) branch divergence @  PC=0x18b0 (_1.ptx:1092) bra.uni $Lt_5_23042;
GPGPU-Sim PTX:    immediate post dominator      @  PC=0x18c0 (_1.ptx:1096) @!%p8 bra $Lt_5_24578;
GPGPU-Sim PTX: 18 (potential) branch divergence @  PC=0x18c0 (_1.ptx:1096) @!%p8 bra $Lt_5_24578;
GPGPU-Sim PTX:    immediate post dominator      @  PC=0x1a58 (_1.ptx:1155) @!%p3 bra $Lt_5_33794;
GPGPU-Sim PTX: 19 (potential) branch divergence @  PC=0x19b8 (_1.ptx:1131) @%p18 bra $Lt_5_25346;
GPGPU-Sim PTX:    immediate post dominator      @  PC=0x1a20 (_1.ptx:1147) sub.s32 %r40, %r40, 1;
GPGPU-Sim PTX: 20 (potential) branch divergence @  PC=0x1a50 (_1.ptx:1153) @%p19 bra $Lt_5_25090;
GPGPU-Sim PTX:    immediate post dominator      @  PC=0x1a58 (_1.ptx:1155) @!%p3 bra $Lt_5_33794;
GPGPU-Sim PTX: 21 (potential) branch divergence @  PC=0x1a58 (_1.ptx:1155) @!%p3 bra $Lt_5_33794;
GPGPU-Sim PTX:    immediate post dominator      @  PC=0x1b00 (_1.ptx:1182) mul.f32 %f30, %f30, %f24;
GPGPU-Sim PTX: 22 (potential) branch divergence @  PC=0x1ae8 (_1.ptx:1176) @%p20 bra $Lt_5_26626;
GPGPU-Sim PTX:    immediate post dominator      @  PC=0x1af0 (_1.ptx:1177) bra.uni $Lt_5_26114;
GPGPU-Sim PTX: 23 (potential) branch divergence @  PC=0x1af0 (_1.ptx:1177) bra.uni $Lt_5_26114;
GPGPU-Sim PTX:    immediate post dominator      @  PC=0x1b00 (_1.ptx:1182) mul.f32 %f30, %f30, %f24;
GPGPU-Sim PTX: 24 (potential) branch divergence @  PC=0x1b08 (_1.ptx:1183) @!%p3 bra $Lt_5_27138;
GPGPU-Sim PTX:    immediate post dominator      @  PC=0x1bb0 (_1.ptx:1209) mov.s32 %r46, %r10;
GPGPU-Sim PTX: 25 (potential) branch divergence @  PC=0x1ba8 (_1.ptx:1206) @%p21 bra $Lt_5_27650;
GPGPU-Sim PTX:    immediate post dominator      @  PC=0x1bb0 (_1.ptx:1209) mov.s32 %r46, %r10;
GPGPU-Sim PTX: 26 (potential) branch divergence @  PC=0x1bb8 (_1.ptx:1210) @!%p5 bra $Lt_5_28162;
GPGPU-Sim PTX:    immediate post dominator      @  PC=0x1c20 (_1.ptx:1228) st.global.f32 [%rd5+0], %f30;
GPGPU-Sim PTX: 27 (potential) branch divergence @  PC=0x1c18 (_1.ptx:1225) @%p22 bra $Lt_5_28674;
GPGPU-Sim PTX:    immediate post dominator      @  PC=0x1c20 (_1.ptx:1228) st.global.f32 [%rd5+0], %f30;
GPGPU-Sim PTX: 28 (potential) branch divergence @  PC=0x1c30 (_1.ptx:1231) @!%p7 bra $Lt_5_29186;
GPGPU-Sim PTX:    immediate post dominator      @  PC=0x1e08 (_1.ptx:1300) ld.local.f32 %f85, [__cuda___cuda_local_var_34265_9_non_const_L_1409615496+316];
GPGPU-Sim PTX: 29 (potential) branch divergence @  PC=0x1c58 (_1.ptx:1238) @%p23 bra $Lt_5_29954;
GPGPU-Sim PTX:    immediate post dominator      @  PC=0x1de8 (_1.ptx:1294) sub.s32 %r57, %r57, 1;
GPGPU-Sim PTX: 30 (potential) branch divergence @  PC=0x1de0 (_1.ptx:1292) @%p24 bra $Lt_5_30466;
GPGPU-Sim PTX:    immediate post dominator      @  PC=0x1de8 (_1.ptx:1294) sub.s32 %r57, %r57, 1;
GPGPU-Sim PTX: 31 (potential) branch divergence @  PC=0x1e00 (_1.ptx:1297) @%p25 bra $Lt_5_29698;
GPGPU-Sim PTX:    immediate post dominator      @  PC=0x1e08 (_1.ptx:1300) ld.local.f32 %f85, [__cuda___cuda_local_var_34265_9_non_const_L_1409615496+316];
GPGPU-Sim PTX: 32 (potential) branch divergence @  PC=0x1e40 (_1.ptx:1307) @%p26 bra $Lt_5_16642;
GPGPU-Sim PTX:    immediate post dominator      @  PC=0x1e48 (_1.ptx:1310) exit;
GPGPU-Sim PTX: ... end of reconvergence points for _Z28Pathcalc_Portfolio_KernelGPUPfS_
GPGPU-Sim PTX: ... done pre-decoding instructions for '_Z28Pathcalc_Portfolio_KernelGPUPfS_'.
GPGPU-Sim PTX: allocating stack frame region for .local "__cuda___cuda_local_var_34227_27_non_const_B_1615824" from 0x0 to 0xa0
GPGPU-Sim PTX: allocating stack frame region for .local "__cuda___cuda_local_var_34291_9_non_const_L_17615984" from 0x100 to 0x240
GPGPU-Sim PTX: allocating stack frame region for .local "__cuda___cuda_local_var_34227_34_non_const_S_49616304" from 0x280 to 0x320
GPGPU-Sim PTX: allocating stack frame region for .local "__cuda___cuda_local_var_34291_16_non_const_z_65616464" from 0x380 to 0x4c0
GPGPU-Sim PTX: instruction assembly for function '_Z29Pathcalc_Portfolio_KernelGPU2Pf'...   done.
GPGPU-Sim PTX: finding reconvergence points for '_Z29Pathcalc_Portfolio_KernelGPU2Pf'...
GPGPU-Sim PTX: Finding dominators for '_Z29Pathcalc_Portfolio_KernelGPU2Pf'...
GPGPU-Sim PTX: Finding immediate dominators for '_Z29Pathcalc_Portfolio_KernelGPU2Pf'...
GPGPU-Sim PTX: Finding postdominators for '_Z29Pathcalc_Portfolio_KernelGPU2Pf'...
GPGPU-Sim PTX: Finding immediate postdominators for '_Z29Pathcalc_Portfolio_KernelGPU2Pf'...
GPGPU-Sim PTX: pre-decoding instructions for '_Z29Pathcalc_Portfolio_KernelGPU2Pf'...
GPGPU-Sim PTX: reconvergence points for _Z29Pathcalc_Portfolio_KernelGPU2Pf...
GPGPU-Sim PTX:  1 (potential) branch divergence @  PC=0x1e90 (_1.ptx:1337) @%p1 bra $Lt_6_8194;
GPGPU-Sim PTX:    immediate post dominator      @  PC=0x2498 (_1.ptx:1571) exit;
GPGPU-Sim PTX:  2 (potential) branch divergence @  PC=0x1f60 (_1.ptx:1365) @!%p2 bra $Lt_6_8962;
GPGPU-Sim PTX:    immediate post dominator      @  PC=0x1fd8 (_1.ptx:1386) @!%p3 bra $Lt_6_9986;
GPGPU-Sim PTX:  3 (potential) branch divergence @  PC=0x1fd0 (_1.ptx:1383) @%p6 bra $Lt_6_9474;
GPGPU-Sim PTX:    immediate post dominator      @  PC=0x1fd8 (_1.ptx:1386) @!%p3 bra $Lt_6_9986;
GPGPU-Sim PTX:  4 (potential) branch divergence @  PC=0x1fd8 (_1.ptx:1386) @!%p3 bra $Lt_6_9986;
GPGPU-Sim PTX:    immediate post dominator      @  PC=0x21b0 (_1.ptx:1456) @!%p4 bra $Lt_6_12034;
GPGPU-Sim PTX:  5 (potential) branch divergence @  PC=0x2010 (_1.ptx:1396) @%p7 bra $Lt_6_10754;
GPGPU-Sim PTX:    immediate post dominator      @  PC=0x2198 (_1.ptx:1451) mov.s32 %r20, %r22;
GPGPU-Sim PTX:  6 (potential) branch divergence @  PC=0x2190 (_1.ptx:1449) @%p8 bra $Lt_6_11266;
GPGPU-Sim PTX:    immediate post dominator      @  PC=0x2198 (_1.ptx:1451) mov.s32 %r20, %r22;
GPGPU-Sim PTX:  7 (potential) branch divergence @  PC=0x21a8 (_1.ptx:1453) @%p9 bra $Lt_6_10498;
GPGPU-Sim PTX:    immediate post dominator      @  PC=0x21b0 (_1.ptx:1456) @!%p4 bra $Lt_6_12034;
GPGPU-Sim PTX:  8 (potential) branch divergence @  PC=0x21b0 (_1.ptx:1456) @!%p4 bra $Lt_6_12034;
GPGPU-Sim PTX:    immediate post dominator      @  PC=0x22a0 (_1.ptx:1493) @!%p5 bra $Lt_6_16642;
GPGPU-Sim PTX:  9 (potential) branch divergence @  PC=0x2298 (_1.ptx:1491) @%p10 bra $Lt_6_12546;
GPGPU-Sim PTX:    immediate post dominator      @  PC=0x22a0 (_1.ptx:1493) @!%p5 bra $Lt_6_16642;
GPGPU-Sim PTX: 10 (potential) branch divergence @  PC=0x22a0 (_1.ptx:1493) @!%p5 bra $Lt_6_16642;
GPGPU-Sim PTX:    immediate post dominator      @  PC=0x23b8 (_1.ptx:1534) @!%p3 bra $Lt_6_16898;
GPGPU-Sim PTX: 11 (potential) branch divergence @  PC=0x23a0 (_1.ptx:1529) @%p12 bra $Lt_6_13570;
GPGPU-Sim PTX:    immediate post dominator      @  PC=0x23a8 (_1.ptx:1530) bra.uni $Lt_6_13058;
GPGPU-Sim PTX: 12 (potential) branch divergence @  PC=0x23a8 (_1.ptx:1530) bra.uni $Lt_6_13058;
GPGPU-Sim PTX:    immediate post dominator      @  PC=0x23b8 (_1.ptx:1534) @!%p3 bra $Lt_6_16898;
GPGPU-Sim PTX: 13 (potential) branch divergence @  PC=0x23b8 (_1.ptx:1534) @!%p3 bra $Lt_6_16898;
GPGPU-Sim PTX:    immediate post dominator      @  PC=0x2460 (_1.ptx:1561) mul.f32 %f25, %f25, %f22;
GPGPU-Sim PTX: 14 (potential) branch divergence @  PC=0x2448 (_1.ptx:1555) @%p13 bra $Lt_6_14594;
GPGPU-Sim PTX:    immediate post dominator      @  PC=0x2450 (_1.ptx:1556) bra.uni $Lt_6_14082;
GPGPU-Sim PTX: 15 (potential) branch divergence @  PC=0x2450 (_1.ptx:1556) bra.uni $Lt_6_14082;
GPGPU-Sim PTX:    immediate post dominator      @  PC=0x2460 (_1.ptx:1561) mul.f32 %f25, %f25, %f22;
GPGPU-Sim PTX: 16 (potential) branch divergence @  PC=0x2490 (_1.ptx:1568) @%p14 bra $Lt_6_8706;
GPGPU-Sim PTX:    immediate post dominator      @  PC=0x2498 (_1.ptx:1571) exit;
GPGPU-Sim PTX: ... end of reconvergence points for _Z29Pathcalc_Portfolio_KernelGPU2Pf
GPGPU-Sim PTX: ... done pre-decoding instructions for '_Z29Pathcalc_Portfolio_KernelGPU2Pf'.
GPGPU-Sim PTX: finished parsing EMBEDDED .ptx file _1.ptx
Adding _cuobjdump_2.ptx with cubin handle 1
GPGPU-Sim PTX: extracting embedded .ptx to temporary file "_ptx_fSEh03"
Running: cat _ptx_fSEh03 | sed 's/.version 1.5/.version 1.4/' | sed 's/, texmode_independent//' | sed 's/\(\.extern \.const\[1\] .b8 \w\+\)\[\]/\1\[1\]/' | sed 's/const\[.\]/const\[0\]/g' > _ptx2_rilG3r
GPGPU-Sim PTX: generating ptxinfo using "$CUDA_INSTALL_PATH/bin/ptxas --gpu-name=sm_20 -v _ptx2_rilG3r --output-file  /dev/null 2> _ptx_fSEh03info"
GPGPU-Sim PTX: Kernel '_Z29Pathcalc_Portfolio_KernelGPU2Pf' : regs=33, lmem=4, smem=0, cmem=508
GPGPU-Sim PTX: Kernel '_Z28Pathcalc_Portfolio_KernelGPUPfS_' : regs=41, lmem=4, smem=0, cmem=516
GPGPU-Sim PTX: removing ptxinfo using "rm -f _ptx_fSEh03 _ptx2_rilG3r _ptx_fSEh03info"
GPGPU-Sim PTX: loading globals with explicit initializers... 
GPGPU-Sim PTX: finished loading globals (0 bytes total).
GPGPU-Sim PTX: loading constants with explicit initializers...  done.
GPGPU-Sim PTX: __cudaRegisterFunction _Z28Pathcalc_Portfolio_KernelGPUPfS_ : hostFun 0x0x403ba0, fat_cubin_handle = 1
GPGPU-Sim PTX: __cudaRegisterVar: hostVar = 0x62d448; deviceAddress = N; deviceName = N
GPGPU-Sim PTX: __cudaRegisterVar: Registering const memory space of 4 bytes
GPGPU-Sim PTX registering constant N (4 bytes) to name mapping
GPGPU-Sim PTX: __cudaRegisterVar: hostVar = 0x62d44c; deviceAddress = Nmat; deviceName = Nmat
GPGPU-Sim PTX: __cudaRegisterVar: Registering const memory space of 4 bytes
GPGPU-Sim PTX registering constant Nmat (4 bytes) to name mapping
GPGPU-Sim PTX: __cudaRegisterVar: hostVar = 0x62d450; deviceAddress = Nopt; deviceName = Nopt
GPGPU-Sim PTX: __cudaRegisterVar: Registering const memory space of 4 bytes
GPGPU-Sim PTX registering constant Nopt (4 bytes) to name mapping
GPGPU-Sim PTX: __cudaRegisterVar: hostVar = 0x62d460; deviceAddress = maturities; deviceName = maturities
GPGPU-Sim PTX: __cudaRegisterVar: Registering const memory space of 60 bytes
GPGPU-Sim PTX registering constant maturities (60 bytes) to name mapping
GPGPU-Sim PTX: __cudaRegisterVar: hostVar = 0x62d49c; deviceAddress = delta; deviceName = delta
GPGPU-Sim PTX: __cudaRegisterVar: Registering const memory space of 4 bytes
GPGPU-Sim PTX registering constant delta (4 bytes) to name mapping
GPGPU-Sim PTX: __cudaRegisterVar: hostVar = 0x62d4a0; deviceAddress = swaprates; deviceName = swaprates
GPGPU-Sim PTX: __cudaRegisterVar: Registering const memory space of 60 bytes
GPGPU-Sim PTX registering constant swaprates (60 bytes) to name mapping
GPGPU-Sim PTX: __cudaRegisterVar: hostVar = 0x62d4e0; deviceAddress = lambda; deviceName = lambda
GPGPU-Sim PTX: __cudaRegisterVar: Registering const memory space of 320 bytes
GPGPU-Sim PTX registering constant lambda (320 bytes) to name mapping
GPGPU-Sim PTX: cudaMemcpyToSymbol: symbol = 0x62d448
GPGPU-Sim PTX: starting gpgpu_ptx_sim_memcpy_symbol with hostVar 0x0x62d448
GPGPU-Sim PTX: gpgpu_ptx_sim_memcpy_symbol: Found PTX symbol w/ hostVar=0x62d448
GPGPU-Sim PTX: gpgpu_ptx_sim_memcpy_symbol: copying const memory 4 bytes  to  symbol N+0 @0x100 ...
GPGPU-Sim PTX: cudaMemcpyToSymbol: symbol = 0x62d44c
GPGPU-Sim PTX: starting gpgpu_ptx_sim_memcpy_symbol with hostVar 0x0x62d44c
GPGPU-Sim PTX: gpgpu_ptx_sim_memcpy_symbol: Found PTX symbol w/ hostVar=0x62d44c
GPGPU-Sim PTX: gpgpu_ptx_sim_memcpy_symbol: copying const memory 4 bytes  to  symbol Nmat+0 @0x104 ...
GPGPU-Sim PTX: cudaMemcpyToSymbol: symbol = 0x62d450
GPGPU-Sim PTX: starting gpgpu_ptx_sim_memcpy_symbol with hostVar 0x0x62d450
GPGPU-Sim PTX: gpgpu_ptx_sim_memcpy_symbol: Found PTX symbol w/ hostVar=0x62d450
GPGPU-Sim PTX: gpgpu_ptx_sim_memcpy_symbol: copying const memory 4 bytes  to  symbol Nopt+0 @0x2c0 ...
GPGPU-Sim PTX: cudaMemcpyToSymbol: symbol = 0x62d49c
GPGPU-Sim PTX: starting gpgpu_ptx_sim_memcpy_symbol with hostVar 0x0x62d49c
GPGPU-Sim PTX: gpgpu_ptx_sim_memcpy_symbol: Found PTX symbol w/ hostVar=0x62d49c
GPGPU-Sim PTX: gpgpu_ptx_sim_memcpy_symbol: copying const memory 4 bytes  to  symbol delta+0 @0x108 ...
GPGPU-Sim PTX: cudaMemcpyToSymbol: symbol = 0x62d460
GPGPU-Sim PTX: starting gpgpu_ptx_sim_memcpy_symbol with hostVar 0x0x62d460
GPGPU-Sim PTX: gpgpu_ptx_sim_memcpy_symbol: Found PTX symbol w/ hostVar=0x62d460
GPGPU-Sim PTX: gpgpu_ptx_sim_memcpy_symbol: copying const memory 60 bytes  to  symbol maturities+0 @0x300 ...
GPGPU-Sim PTX: cudaMemcpyToSymbol: symbol = 0x62d4a0
GPGPU-Sim PTX: starting gpgpu_ptx_sim_memcpy_symbol with hostVar 0x0x62d4a0
GPGPU-Sim PTX: gpgpu_ptx_sim_memcpy_symbol: Found PTX symbol w/ hostVar=0x62d4a0
GPGPU-Sim PTX: gpgpu_ptx_sim_memcpy_symbol: copying const memory 60 bytes  to  symbol swaprates+0 @0x380 ...
GPGPU-Sim PTX: cudaMemcpyToSymbol: symbol = 0x62d4e0
GPGPU-Sim PTX: starting gpgpu_ptx_sim_memcpy_symbol with hostVar 0x0x62d4e0
GPGPU-Sim PTX: gpgpu_ptx_sim_memcpy_symbol: Found PTX symbol w/ hostVar=0x62d4e0
GPGPU-Sim PTX: gpgpu_ptx_sim_memcpy_symbol: copying const memory 320 bytes  to  symbol lambda+0 @0x180 ...
GPGPU-Sim: synchronize waiting for inactive GPU simulation
GPGPU-Sim API: Stream Manager State
GPGPU-Sim: detected inactive GPU simulation thread

GPGPU-Sim PTX: cudaLaunch for 0x0x403b30 (mode=performance simulation) on stream 0
GPGPU-Sim PTX: pushing kernel '_Z29Pathcalc_Portfolio_KernelGPU2Pf' to stream 0, gridDim= (64,1,1) blockDim = (64,1,1) 
kernel '_Z29Pathcalc_Portfolio_KernelGPU2Pf' transfer to GPU hardware scheduler
GPGPU-Sim uArch: Shader 1 bind to kernel 1 '_Z29Pathcalc_Portfolio_KernelGPU2Pf'
GPGPU-Sim uArch: CTA/core = 7, limited by: regs
GPGPU-Sim uArch: core:  1, cta: 0 initialized @(1,0)
GPGPU-Sim uArch: Shader 2 bind to kernel 1 '_Z29Pathcalc_Portfolio_KernelGPU2Pf'
GPGPU-Sim uArch: core:  2, cta: 0 initialized @(1,0)
GPGPU-Sim uArch: Shader 3 bind to kernel 1 '_Z29Pathcalc_Portfolio_KernelGPU2Pf'
GPGPU-Sim uArch: core:  3, cta: 0 initialized @(1,0)
GPGPU-Sim uArch: Shader 4 bind to kernel 1 '_Z29Pathcalc_Portfolio_KernelGPU2Pf'
GPGPU-Sim uArch: core:  4, cta: 0 initialized @(1,0)
GPGPU-Sim uArch: Shader 5 bind to kernel 1 '_Z29Pathcalc_Portfolio_KernelGPU2Pf'
GPGPU-Sim uArch: core:  5, cta: 0 initialized @(1,0)
GPGPU-Sim uArch: Shader 6 bind to kernel 1 '_Z29Pathcalc_Portfolio_KernelGPU2Pf'
GPGPU-Sim uArch: core:  6, cta: 0 initialized @(1,0)
GPGPU-Sim uArch: Shader 7 bind to kernel 1 '_Z29Pathcalc_Portfolio_KernelGPU2Pf'
GPGPU-Sim uArch: core:  7, cta: 0 initialized @(1,0)
GPGPU-Sim uArch: Shader 8 bind to kernel 1 '_Z29Pathcalc_Portfolio_KernelGPU2Pf'
GPGPU-Sim uArch: core:  8, cta: 0 initialized @(1,0)
GPGPU-Sim uArch: Shader 9 bind to kernel 1 '_Z29Pathcalc_Portfolio_KernelGPU2Pf'
GPGPU-Sim uArch: core:  9, cta: 0 initialized @(1,0)
GPGPU-Sim uArch: Shader 10 bind to kernel 1 '_Z29Pathcalc_Portfolio_KernelGPU2Pf'
GPGPU-Sim uArch: core: 10, cta: 0 initialized @(1,0)
GPGPU-Sim uArch: Shader 11 bind to kernel 1 '_Z29Pathcalc_Portfolio_KernelGPU2Pf'
GPGPU-Sim uArch: core: 11, cta: 0 initialized @(1,0)
GPGPU-Sim uArch: Shader 12 bind to kernel 1 '_Z29Pathcalc_Portfolio_KernelGPU2Pf'
GPGPU-Sim uArch: core: 12, cta: 0 initialized @(1,0)
GPGPU-Sim uArch: Shader 13 bind to kernel 1 '_Z29Pathcalc_Portfolio_KernelGPU2Pf'
GPGPU-Sim uArch: core: 13, cta: 0 initialized @(1,0)
GPGPU-Sim uArch: Shader 14 bind to kernel 1 '_Z29Pathcalc_Portfolio_KernelGPU2Pf'
GPGPU-Sim uArch: core: 14, cta: 0 initialized @(1,0)
GPGPU-Sim uArch: Shader 0 bind to kernel 1 '_Z29Pathcalc_Portfolio_KernelGPU2Pf'
GPGPU-Sim uArch: core:  0, cta: 0 initialized @(1,0)
GPGPU-Sim uArch: core:  1, cta: 1 initialized @(2,0)
GPGPU-Sim uArch: core:  2, cta: 1 initialized @(2,0)
GPGPU-Sim uArch: core:  3, cta: 1 initialized @(2,0)
GPGPU-Sim uArch: core:  4, cta: 1 initialized @(2,0)
GPGPU-Sim uArch: core:  5, cta: 1 initialized @(2,0)
GPGPU-Sim uArch: core:  6, cta: 1 initialized @(2,0)
GPGPU-Sim uArch: core:  7, cta: 1 initialized @(2,0)
GPGPU-Sim uArch: core:  8, cta: 1 initialized @(2,0)
GPGPU-Sim uArch: core:  9, cta: 1 initialized @(2,0)
GPGPU-Sim uArch: core: 10, cta: 1 initialized @(2,0)
GPGPU-Sim uArch: core: 11, cta: 1 initialized @(2,0)
GPGPU-Sim uArch: core: 12, cta: 1 initialized @(2,0)
GPGPU-Sim uArch: core: 13, cta: 1 initialized @(2,0)
GPGPU-Sim uArch: core: 14, cta: 1 initialized @(2,0)
GPGPU-Sim uArch: core:  0, cta: 1 initialized @(2,0)
GPGPU-Sim uArch: core:  1, cta: 2 initialized @(3,0)
GPGPU-Sim uArch: core:  2, cta: 2 initialized @(3,0)
GPGPU-Sim uArch: core:  3, cta: 2 initialized @(3,0)
GPGPU-Sim uArch: core:  4, cta: 2 initialized @(3,0)
GPGPU-Sim uArch: core:  5, cta: 2 initialized @(3,0)
GPGPU-Sim uArch: core:  6, cta: 2 initialized @(3,0)
GPGPU-Sim uArch: core:  7, cta: 2 initialized @(3,0)
GPGPU-Sim uArch: core:  8, cta: 2 initialized @(3,0)
GPGPU-Sim uArch: core:  9, cta: 2 initialized @(3,0)
GPGPU-Sim uArch: core: 10, cta: 2 initialized @(3,0)
GPGPU-Sim uArch: core: 11, cta: 2 initialized @(3,0)
GPGPU-Sim uArch: core: 12, cta: 2 initialized @(3,0)
GPGPU-Sim uArch: core: 13, cta: 2 initialized @(3,0)
GPGPU-Sim uArch: core: 14, cta: 2 initialized @(3,0)
GPGPU-Sim uArch: core:  0, cta: 2 initialized @(3,0)
GPGPU-Sim uArch: core:  1, cta: 3 initialized @(4,0)
GPGPU-Sim uArch: core:  2, cta: 3 initialized @(4,0)
GPGPU-Sim uArch: core:  3, cta: 3 initialized @(4,0)
GPGPU-Sim uArch: core:  4, cta: 3 initialized @(4,0)
GPGPU-Sim uArch: core:  5, cta: 3 initialized @(4,0)
GPGPU-Sim uArch: core:  6, cta: 3 initialized @(4,0)
GPGPU-Sim uArch: core:  7, cta: 3 initialized @(4,0)
GPGPU-Sim uArch: core:  8, cta: 3 initialized @(4,0)
GPGPU-Sim uArch: core:  9, cta: 3 initialized @(4,0)
GPGPU-Sim uArch: core: 10, cta: 3 initialized @(4,0)
GPGPU-Sim uArch: core: 11, cta: 3 initialized @(4,0)
GPGPU-Sim uArch: core: 12, cta: 3 initialized @(4,0)
GPGPU-Sim uArch: core: 13, cta: 3 initialized @(4,0)
GPGPU-Sim uArch: core: 14, cta: 3 initialized @(4,0)
GPGPU-Sim uArch: core:  0, cta: 3 initialized @(4,0)
GPGPU-Sim uArch: core:  1, cta: 4 initialized @(5,0)
GPGPU-Sim uArch: core:  2, cta: 4 initialized @(5,0)
GPGPU-Sim uArch: core:  3, cta: 4 initialized @(5,0)
GPGPU-Sim uArch: core:  4, cta: 4 initialized @(5,0)
GPGPU-Sim uArch: cycles simulated: 500  inst.: 24576 (ipc=49.2) sim_rate=24576 (inst/sec) elapsed = 0:0:00:01 / Mon May 11 19:28:17 2015
GPGPU-Sim PTX: 100000 instructions simulated : ctaid=(55,0,0) tid=(31,0,0)
GPGPU-Sim uArch: cycles simulated: 1500  inst.: 92416 (ipc=61.6) sim_rate=46208 (inst/sec) elapsed = 0:0:00:02 / Mon May 11 19:28:19 2015
GPGPU-Sim PTX: 200000 instructions simulated : ctaid=(13,0,0) tid=(63,0,0)
GPGPU-Sim uArch: cycles simulated: 2500  inst.: 251712 (ipc=100.7) sim_rate=62928 (inst/sec) elapsed = 0:0:00:04 / Mon May 11 19:28:21 2015
GPGPU-Sim PTX: 300000 instructions simulated : ctaid=(23,0,0) tid=(31,0,0)
GPGPU-Sim uArch: cycles simulated: 3500  inst.: 291520 (ipc=83.3) sim_rate=58304 (inst/sec) elapsed = 0:0:00:05 / Mon May 11 19:28:22 2015
GPGPU-Sim uArch: cycles simulated: 4000  inst.: 308672 (ipc=77.2) sim_rate=51445 (inst/sec) elapsed = 0:0:00:06 / Mon May 11 19:28:23 2015
GPGPU-Sim uArch: cycles simulated: 4500  inst.: 330112 (ipc=73.4) sim_rate=47158 (inst/sec) elapsed = 0:0:00:07 / Mon May 11 19:28:24 2015
GPGPU-Sim uArch: cycles simulated: 5500  inst.: 385152 (ipc=70.0) sim_rate=48144 (inst/sec) elapsed = 0:0:00:08 / Mon May 11 19:28:25 2015
GPGPU-Sim PTX: 400000 instructions simulated : ctaid=(23,0,0) tid=(63,0,0)
GPGPU-Sim uArch: cycles simulated: 6000  inst.: 407168 (ipc=67.9) sim_rate=45240 (inst/sec) elapsed = 0:0:00:09 / Mon May 11 19:28:26 2015
GPGPU-Sim uArch: cycles simulated: 6500  inst.: 432320 (ipc=66.5) sim_rate=43232 (inst/sec) elapsed = 0:0:00:10 / Mon May 11 19:28:27 2015
GPGPU-Sim uArch: cycles simulated: 7500  inst.: 479360 (ipc=63.9) sim_rate=43578 (inst/sec) elapsed = 0:0:00:11 / Mon May 11 19:28:28 2015
GPGPU-Sim PTX: 500000 instructions simulated : ctaid=(15,0,0) tid=(31,0,0)
GPGPU-Sim uArch: cycles simulated: 8000  inst.: 504512 (ipc=63.1) sim_rate=42042 (inst/sec) elapsed = 0:0:00:12 / Mon May 11 19:28:29 2015
GPGPU-Sim uArch: cycles simulated: 8500  inst.: 529536 (ipc=62.3) sim_rate=40733 (inst/sec) elapsed = 0:0:00:13 / Mon May 11 19:28:30 2015
GPGPU-Sim uArch: cycles simulated: 9500  inst.: 579904 (ipc=61.0) sim_rate=41421 (inst/sec) elapsed = 0:0:00:14 / Mon May 11 19:28:31 2015
GPGPU-Sim PTX: 600000 instructions simulated : ctaid=(10,0,0) tid=(63,0,0)
GPGPU-Sim uArch: cycles simulated: 10000  inst.: 600896 (ipc=60.1) sim_rate=40059 (inst/sec) elapsed = 0:0:00:15 / Mon May 11 19:28:32 2015
GPGPU-Sim uArch: cycles simulated: 10500  inst.: 627072 (ipc=59.7) sim_rate=39192 (inst/sec) elapsed = 0:0:00:16 / Mon May 11 19:28:33 2015
GPGPU-Sim uArch: cycles simulated: 11500  inst.: 676608 (ipc=58.8) sim_rate=39800 (inst/sec) elapsed = 0:0:00:17 / Mon May 11 19:28:34 2015
GPGPU-Sim PTX: 700000 instructions simulated : ctaid=(21,0,0) tid=(31,0,0)
GPGPU-Sim uArch: cycles simulated: 12000  inst.: 699648 (ipc=58.3) sim_rate=38869 (inst/sec) elapsed = 0:0:00:18 / Mon May 11 19:28:35 2015
GPGPU-Sim uArch: cycles simulated: 13000  inst.: 750592 (ipc=57.7) sim_rate=39504 (inst/sec) elapsed = 0:0:00:19 / Mon May 11 19:28:36 2015
GPGPU-Sim uArch: cycles simulated: 13500  inst.: 774656 (ipc=57.4) sim_rate=38732 (inst/sec) elapsed = 0:0:00:20 / Mon May 11 19:28:37 2015
GPGPU-Sim PTX: 800000 instructions simulated : ctaid=(26,0,0) tid=(63,0,0)
GPGPU-Sim uArch: cycles simulated: 14000  inst.: 799040 (ipc=57.1) sim_rate=38049 (inst/sec) elapsed = 0:0:00:21 / Mon May 11 19:28:38 2015
GPGPU-Sim uArch: cycles simulated: 14500  inst.: 824384 (ipc=56.9) sim_rate=37472 (inst/sec) elapsed = 0:0:00:22 / Mon May 11 19:28:39 2015
GPGPU-Sim uArch: cycles simulated: 15500  inst.: 872704 (ipc=56.3) sim_rate=37943 (inst/sec) elapsed = 0:0:00:23 / Mon May 11 19:28:40 2015
GPGPU-Sim PTX: 900000 instructions simulated : ctaid=(14,0,0) tid=(31,0,0)
GPGPU-Sim uArch: cycles simulated: 16000  inst.: 897984 (ipc=56.1) sim_rate=37416 (inst/sec) elapsed = 0:0:00:24 / Mon May 11 19:28:41 2015
GPGPU-Sim uArch: cycles simulated: 17000  inst.: 950208 (ipc=55.9) sim_rate=38008 (inst/sec) elapsed = 0:0:00:25 / Mon May 11 19:28:42 2015
GPGPU-Sim uArch: cycles simulated: 17500  inst.: 975424 (ipc=55.7) sim_rate=37516 (inst/sec) elapsed = 0:0:00:26 / Mon May 11 19:28:43 2015
GPGPU-Sim PTX: 1000000 instructions simulated : ctaid=(9,0,0) tid=(63,0,0)
GPGPU-Sim uArch: cycles simulated: 18000  inst.: 999168 (ipc=55.5) sim_rate=37006 (inst/sec) elapsed = 0:0:00:27 / Mon May 11 19:28:44 2015
GPGPU-Sim uArch: cycles simulated: 18500  inst.: 1026880 (ipc=55.5) sim_rate=36674 (inst/sec) elapsed = 0:0:00:28 / Mon May 11 19:28:45 2015
GPGPU-Sim uArch: cycles simulated: 19000  inst.: 1051712 (ipc=55.4) sim_rate=36265 (inst/sec) elapsed = 0:0:00:29 / Mon May 11 19:28:46 2015
GPGPU-Sim PTX: 1100000 instructions simulated : ctaid=(8,0,0) tid=(31,0,0)
GPGPU-Sim uArch: cycles simulated: 20000  inst.: 1106304 (ipc=55.3) sim_rate=36876 (inst/sec) elapsed = 0:0:00:30 / Mon May 11 19:28:47 2015
GPGPU-Sim uArch: cycles simulated: 20500  inst.: 1132736 (ipc=55.3) sim_rate=36539 (inst/sec) elapsed = 0:0:00:31 / Mon May 11 19:28:48 2015
GPGPU-Sim uArch: cycles simulated: 21000  inst.: 1159296 (ipc=55.2) sim_rate=36228 (inst/sec) elapsed = 0:0:00:32 / Mon May 11 19:28:49 2015
GPGPU-Sim PTX: 1200000 instructions simulated : ctaid=(2,0,0) tid=(63,0,0)
GPGPU-Sim uArch: cycles simulated: 21500  inst.: 1183488 (ipc=55.0) sim_rate=35863 (inst/sec) elapsed = 0:0:00:33 / Mon May 11 19:28:50 2015
GPGPU-Sim uArch: cycles simulated: 22500  inst.: 1242048 (ipc=55.2) sim_rate=36530 (inst/sec) elapsed = 0:0:00:34 / Mon May 11 19:28:51 2015
GPGPU-Sim uArch: cycles simulated: 23000  inst.: 1270464 (ipc=55.2) sim_rate=36298 (inst/sec) elapsed = 0:0:00:35 / Mon May 11 19:28:52 2015
GPGPU-Sim PTX: 1300000 instructions simulated : ctaid=(19,0,0) tid=(31,0,0)
GPGPU-Sim uArch: cycles simulated: 23500  inst.: 1299776 (ipc=55.3) sim_rate=36104 (inst/sec) elapsed = 0:0:00:36 / Mon May 11 19:28:53 2015
GPGPU-Sim uArch: cycles simulated: 24500  inst.: 1354560 (ipc=55.3) sim_rate=36609 (inst/sec) elapsed = 0:0:00:37 / Mon May 11 19:28:54 2015
GPGPU-Sim PTX: 1400000 instructions simulated : ctaid=(44,0,0) tid=(63,0,0)
GPGPU-Sim uArch: cycles simulated: 25000  inst.: 1386624 (ipc=55.5) sim_rate=36490 (inst/sec) elapsed = 0:0:00:38 / Mon May 11 19:28:55 2015
GPGPU-Sim uArch: cycles simulated: 25500  inst.: 1413632 (ipc=55.4) sim_rate=36246 (inst/sec) elapsed = 0:0:00:39 / Mon May 11 19:28:56 2015
GPGPU-Sim uArch: cycles simulated: 26000  inst.: 1441600 (ipc=55.4) sim_rate=36040 (inst/sec) elapsed = 0:0:00:40 / Mon May 11 19:28:57 2015
GPGPU-Sim PTX: 1500000 instructions simulated : ctaid=(31,0,0) tid=(31,0,0)
GPGPU-Sim uArch: cycles simulated: 27000  inst.: 1497792 (ipc=55.5) sim_rate=36531 (inst/sec) elapsed = 0:0:00:41 / Mon May 11 19:28:58 2015
GPGPU-Sim uArch: cycles simulated: 27500  inst.: 1533056 (ipc=55.7) sim_rate=36501 (inst/sec) elapsed = 0:0:00:42 / Mon May 11 19:28:59 2015
GPGPU-Sim uArch: cycles simulated: 28000  inst.: 1565696 (ipc=55.9) sim_rate=36411 (inst/sec) elapsed = 0:0:00:43 / Mon May 11 19:29:00 2015
GPGPU-Sim PTX: 1600000 instructions simulated : ctaid=(41,0,0) tid=(63,0,0)
GPGPU-Sim uArch: cycles simulated: 29000  inst.: 1620608 (ipc=55.9) sim_rate=36832 (inst/sec) elapsed = 0:0:00:44 / Mon May 11 19:29:01 2015
GPGPU-Sim uArch: cycles simulated: 29500  inst.: 1648320 (ipc=55.9) sim_rate=36629 (inst/sec) elapsed = 0:0:00:45 / Mon May 11 19:29:02 2015
GPGPU-Sim uArch: cycles simulated: 30000  inst.: 1681024 (ipc=56.0) sim_rate=36544 (inst/sec) elapsed = 0:0:00:46 / Mon May 11 19:29:03 2015
GPGPU-Sim PTX: 1700000 instructions simulated : ctaid=(0,0,0) tid=(31,0,0)
GPGPU-Sim uArch: cycles simulated: 30500  inst.: 1713088 (ipc=56.2) sim_rate=36448 (inst/sec) elapsed = 0:0:00:47 / Mon May 11 19:29:04 2015
GPGPU-Sim uArch: cycles simulated: 31000  inst.: 1744000 (ipc=56.3) sim_rate=36333 (inst/sec) elapsed = 0:0:00:48 / Mon May 11 19:29:05 2015
GPGPU-Sim uArch: cycles simulated: 31500  inst.: 1772992 (ipc=56.3) sim_rate=36183 (inst/sec) elapsed = 0:0:00:49 / Mon May 11 19:29:06 2015
GPGPU-Sim PTX: 1800000 instructions simulated : ctaid=(5,0,0) tid=(63,0,0)
GPGPU-Sim uArch: cycles simulated: 32000  inst.: 1803776 (ipc=56.4) sim_rate=36075 (inst/sec) elapsed = 0:0:00:50 / Mon May 11 19:29:07 2015
GPGPU-Sim uArch: cycles simulated: 32500  inst.: 1833600 (ipc=56.4) sim_rate=35952 (inst/sec) elapsed = 0:0:00:51 / Mon May 11 19:29:08 2015
GPGPU-Sim uArch: cycles simulated: 33000  inst.: 1865216 (ipc=56.5) sim_rate=35869 (inst/sec) elapsed = 0:0:00:52 / Mon May 11 19:29:09 2015
GPGPU-Sim PTX: 1900000 instructions simulated : ctaid=(25,0,0) tid=(31,0,0)
GPGPU-Sim uArch: cycles simulated: 33500  inst.: 1896064 (ipc=56.6) sim_rate=35774 (inst/sec) elapsed = 0:0:00:53 / Mon May 11 19:29:10 2015
GPGPU-Sim uArch: cycles simulated: 34000  inst.: 1925056 (ipc=56.6) sim_rate=35649 (inst/sec) elapsed = 0:0:00:54 / Mon May 11 19:29:11 2015
GPGPU-Sim uArch: cycles simulated: 34500  inst.: 1958016 (ipc=56.8) sim_rate=35600 (inst/sec) elapsed = 0:0:00:55 / Mon May 11 19:29:12 2015
GPGPU-Sim PTX: 2000000 instructions simulated : ctaid=(6,0,0) tid=(63,0,0)
GPGPU-Sim uArch: cycles simulated: 35000  inst.: 1985792 (ipc=56.7) sim_rate=35460 (inst/sec) elapsed = 0:0:00:56 / Mon May 11 19:29:13 2015
GPGPU-Sim uArch: cycles simulated: 36000  inst.: 2052288 (ipc=57.0) sim_rate=36005 (inst/sec) elapsed = 0:0:00:57 / Mon May 11 19:29:14 2015
GPGPU-Sim PTX: 2100000 instructions simulated : ctaid=(40,0,0) tid=(31,0,0)
GPGPU-Sim uArch: cycles simulated: 36500  inst.: 2085952 (ipc=57.1) sim_rate=35964 (inst/sec) elapsed = 0:0:00:58 / Mon May 11 19:29:15 2015
GPGPU-Sim uArch: cycles simulated: 37000  inst.: 2109632 (ipc=57.0) sim_rate=35756 (inst/sec) elapsed = 0:0:00:59 / Mon May 11 19:29:16 2015
GPGPU-Sim PTX: 2200000 instructions simulated : ctaid=(15,0,0) tid=(63,0,0)
GPGPU-Sim uArch: cycles simulated: 38000  inst.: 2182784 (ipc=57.4) sim_rate=36379 (inst/sec) elapsed = 0:0:01:00 / Mon May 11 19:29:17 2015
GPGPU-Sim uArch: cycles simulated: 38500  inst.: 2222848 (ipc=57.7) sim_rate=36440 (inst/sec) elapsed = 0:0:01:01 / Mon May 11 19:29:18 2015
GPGPU-Sim uArch: cycles simulated: 39000  inst.: 2250816 (ipc=57.7) sim_rate=36303 (inst/sec) elapsed = 0:0:01:02 / Mon May 11 19:29:19 2015
GPGPU-Sim PTX: 2300000 instructions simulated : ctaid=(39,0,0) tid=(31,0,0)
GPGPU-Sim uArch: cycles simulated: 39500  inst.: 2286400 (ipc=57.9) sim_rate=36292 (inst/sec) elapsed = 0:0:01:03 / Mon May 11 19:29:20 2015
GPGPU-Sim uArch: cycles simulated: 40000  inst.: 2318336 (ipc=58.0) sim_rate=36224 (inst/sec) elapsed = 0:0:01:04 / Mon May 11 19:29:21 2015
GPGPU-Sim uArch: cycles simulated: 40500  inst.: 2362944 (ipc=58.3) sim_rate=36352 (inst/sec) elapsed = 0:0:01:05 / Mon May 11 19:29:22 2015
GPGPU-Sim PTX: 2400000 instructions simulated : ctaid=(31,0,0) tid=(63,0,0)
GPGPU-Sim uArch: cycles simulated: 41500  inst.: 2436544 (ipc=58.7) sim_rate=36917 (inst/sec) elapsed = 0:0:01:06 / Mon May 11 19:29:23 2015
GPGPU-Sim uArch: cycles simulated: 42000  inst.: 2468096 (ipc=58.8) sim_rate=36837 (inst/sec) elapsed = 0:0:01:07 / Mon May 11 19:29:24 2015
GPGPU-Sim PTX: 2500000 instructions simulated : ctaid=(29,0,0) tid=(31,0,0)
GPGPU-Sim uArch: cycles simulated: 42500  inst.: 2509760 (ipc=59.1) sim_rate=36908 (inst/sec) elapsed = 0:0:01:08 / Mon May 11 19:29:25 2015
GPGPU-Sim uArch: cycles simulated: 43000  inst.: 2546176 (ipc=59.2) sim_rate=36901 (inst/sec) elapsed = 0:0:01:09 / Mon May 11 19:29:26 2015
GPGPU-Sim PTX: 2600000 instructions simulated : ctaid=(10,0,0) tid=(63,0,0)
GPGPU-Sim uArch: cycles simulated: 43500  inst.: 2585152 (ipc=59.4) sim_rate=36930 (inst/sec) elapsed = 0:0:01:10 / Mon May 11 19:29:27 2015
GPGPU-Sim uArch: cycles simulated: 44000  inst.: 2618432 (ipc=59.5) sim_rate=36879 (inst/sec) elapsed = 0:0:01:11 / Mon May 11 19:29:28 2015
GPGPU-Sim PTX: 2700000 instructions simulated : ctaid=(36,0,0) tid=(31,0,0)
GPGPU-Sim uArch: cycles simulated: 45000  inst.: 2698944 (ipc=60.0) sim_rate=37485 (inst/sec) elapsed = 0:0:01:12 / Mon May 11 19:29:29 2015
GPGPU-Sim uArch: cycles simulated: 45500  inst.: 2742912 (ipc=60.3) sim_rate=37574 (inst/sec) elapsed = 0:0:01:13 / Mon May 11 19:29:30 2015
GPGPU-Sim PTX: 2800000 instructions simulated : ctaid=(45,0,0) tid=(63,0,0)
GPGPU-Sim uArch: cycles simulated: 46000  inst.: 2782656 (ipc=60.5) sim_rate=37603 (inst/sec) elapsed = 0:0:01:14 / Mon May 11 19:29:31 2015
GPGPU-Sim uArch: cycles simulated: 46500  inst.: 2818304 (ipc=60.6) sim_rate=37577 (inst/sec) elapsed = 0:0:01:15 / Mon May 11 19:29:32 2015
GPGPU-Sim uArch: cycles simulated: 47000  inst.: 2855040 (ipc=60.7) sim_rate=37566 (inst/sec) elapsed = 0:0:01:16 / Mon May 11 19:29:33 2015
GPGPU-Sim PTX: 2900000 instructions simulated : ctaid=(14,0,0) tid=(31,0,0)
GPGPU-Sim uArch: cycles simulated: 47500  inst.: 2896640 (ipc=61.0) sim_rate=37618 (inst/sec) elapsed = 0:0:01:17 / Mon May 11 19:29:34 2015
GPGPU-Sim PTX: 3000000 instructions simulated : ctaid=(37,0,0) tid=(63,0,0)
GPGPU-Sim uArch: cycles simulated: 48500  inst.: 2979328 (ipc=61.4) sim_rate=38196 (inst/sec) elapsed = 0:0:01:18 / Mon May 11 19:29:35 2015
GPGPU-Sim uArch: cycles simulated: 49000  inst.: 3020352 (ipc=61.6) sim_rate=38232 (inst/sec) elapsed = 0:0:01:19 / Mon May 11 19:29:36 2015
GPGPU-Sim uArch: cycles simulated: 49500  inst.: 3066432 (ipc=61.9) sim_rate=38330 (inst/sec) elapsed = 0:0:01:20 / Mon May 11 19:29:37 2015
GPGPU-Sim PTX: 3100000 instructions simulated : ctaid=(49,0,0) tid=(31,0,0)
GPGPU-Sim uArch: cycles simulated: 50000  inst.: 3107648 (ipc=62.2) sim_rate=38366 (inst/sec) elapsed = 0:0:01:21 / Mon May 11 19:29:38 2015
GPGPU-Sim uArch: cycles simulated: 50500  inst.: 3149952 (ipc=62.4) sim_rate=38414 (inst/sec) elapsed = 0:0:01:22 / Mon May 11 19:29:39 2015
GPGPU-Sim PTX: 3200000 instructions simulated : ctaid=(55,0,0) tid=(63,0,0)
GPGPU-Sim uArch: cycles simulated: 51000  inst.: 3181760 (ipc=62.4) sim_rate=38334 (inst/sec) elapsed = 0:0:01:23 / Mon May 11 19:29:40 2015
GPGPU-Sim uArch: cycles simulated: 51500  inst.: 3226496 (ipc=62.7) sim_rate=38410 (inst/sec) elapsed = 0:0:01:24 / Mon May 11 19:29:41 2015
GPGPU-Sim PTX: 3300000 instructions simulated : ctaid=(8,0,0) tid=(31,0,0)
GPGPU-Sim uArch: cycles simulated: 52000  inst.: 3282560 (ipc=63.1) sim_rate=38618 (inst/sec) elapsed = 0:0:01:25 / Mon May 11 19:29:42 2015
GPGPU-Sim uArch: cycles simulated: 53000  inst.: 3360384 (ipc=63.4) sim_rate=39074 (inst/sec) elapsed = 0:0:01:26 / Mon May 11 19:29:43 2015
GPGPU-Sim PTX: 3400000 instructions simulated : ctaid=(46,0,0) tid=(63,0,0)
GPGPU-Sim uArch: cycles simulated: 53500  inst.: 3399360 (ipc=63.5) sim_rate=39073 (inst/sec) elapsed = 0:0:01:27 / Mon May 11 19:29:44 2015
GPGPU-Sim uArch: cycles simulated: 54000  inst.: 3453120 (ipc=63.9) sim_rate=39240 (inst/sec) elapsed = 0:0:01:28 / Mon May 11 19:29:45 2015
GPGPU-Sim PTX: 3500000 instructions simulated : ctaid=(16,0,0) tid=(31,0,0)
GPGPU-Sim uArch: cycles simulated: 54500  inst.: 3498368 (ipc=64.2) sim_rate=39307 (inst/sec) elapsed = 0:0:01:29 / Mon May 11 19:29:46 2015
GPGPU-Sim uArch: cycles simulated: 55000  inst.: 3531520 (ipc=64.2) sim_rate=39239 (inst/sec) elapsed = 0:0:01:30 / Mon May 11 19:29:47 2015
GPGPU-Sim uArch: cycles simulated: 55500  inst.: 3565312 (ipc=64.2) sim_rate=39179 (inst/sec) elapsed = 0:0:01:31 / Mon May 11 19:29:48 2015
GPGPU-Sim PTX: 3600000 instructions simulated : ctaid=(52,0,0) tid=(63,0,0)
GPGPU-Sim uArch: cycles simulated: 56000  inst.: 3628736 (ipc=64.8) sim_rate=39442 (inst/sec) elapsed = 0:0:01:32 / Mon May 11 19:29:49 2015
GPGPU-Sim PTX: 3700000 instructions simulated : ctaid=(59,0,0) tid=(31,0,0)
GPGPU-Sim uArch: cycles simulated: 57000  inst.: 3708544 (ipc=65.1) sim_rate=39876 (inst/sec) elapsed = 0:0:01:33 / Mon May 11 19:29:50 2015
GPGPU-Sim uArch: cycles simulated: 57500  inst.: 3749056 (ipc=65.2) sim_rate=39883 (inst/sec) elapsed = 0:0:01:34 / Mon May 11 19:29:51 2015
GPGPU-Sim PTX: 3800000 instructions simulated : ctaid=(46,0,0) tid=(63,0,0)
GPGPU-Sim uArch: cycles simulated: 58000  inst.: 3808128 (ipc=65.7) sim_rate=40085 (inst/sec) elapsed = 0:0:01:35 / Mon May 11 19:29:52 2015
GPGPU-Sim uArch: cycles simulated: 58500  inst.: 3874688 (ipc=66.2) sim_rate=40361 (inst/sec) elapsed = 0:0:01:36 / Mon May 11 19:29:53 2015
GPGPU-Sim PTX: 3900000 instructions simulated : ctaid=(62,0,0) tid=(31,0,0)
GPGPU-Sim uArch: cycles simulated: 59000  inst.: 3931712 (ipc=66.6) sim_rate=40533 (inst/sec) elapsed = 0:0:01:37 / Mon May 11 19:29:54 2015
GPGPU-Sim PTX: 4000000 instructions simulated : ctaid=(19,0,0) tid=(63,0,0)
GPGPU-Sim uArch: cycles simulated: 59500  inst.: 4004736 (ipc=67.3) sim_rate=40864 (inst/sec) elapsed = 0:0:01:38 / Mon May 11 19:29:55 2015
GPGPU-Sim uArch: cycles simulated: 60000  inst.: 4072640 (ipc=67.9) sim_rate=41137 (inst/sec) elapsed = 0:0:01:39 / Mon May 11 19:29:56 2015
GPGPU-Sim PTX: 4100000 instructions simulated : ctaid=(3,0,0) tid=(31,0,0)
GPGPU-Sim uArch: cycles simulated: 60500  inst.: 4139904 (ipc=68.4) sim_rate=41399 (inst/sec) elapsed = 0:0:01:40 / Mon May 11 19:29:57 2015
GPGPU-Sim PTX: 4200000 instructions simulated : ctaid=(37,0,0) tid=(63,0,0)
GPGPU-Sim uArch: cycles simulated: 61000  inst.: 4205312 (ipc=68.9) sim_rate=41636 (inst/sec) elapsed = 0:0:01:41 / Mon May 11 19:29:58 2015
GPGPU-Sim PTX: 4300000 instructions simulated : ctaid=(8,0,0) tid=(31,0,0)
GPGPU-Sim uArch: cycles simulated: 61500  inst.: 4291392 (ipc=69.8) sim_rate=42072 (inst/sec) elapsed = 0:0:01:42 / Mon May 11 19:29:59 2015
GPGPU-Sim uArch: cycles simulated: 62000  inst.: 4369280 (ipc=70.5) sim_rate=42420 (inst/sec) elapsed = 0:0:01:43 / Mon May 11 19:30:00 2015
GPGPU-Sim PTX: 4400000 instructions simulated : ctaid=(56,0,0) tid=(63,0,0)
GPGPU-Sim uArch: cycles simulated: 62500  inst.: 4456768 (ipc=71.3) sim_rate=42853 (inst/sec) elapsed = 0:0:01:44 / Mon May 11 19:30:01 2015
GPGPU-Sim PTX: 4500000 instructions simulated : ctaid=(59,0,0) tid=(31,0,0)
GPGPU-Sim uArch: cycles simulated: 63000  inst.: 4558784 (ipc=72.4) sim_rate=43416 (inst/sec) elapsed = 0:0:01:45 / Mon May 11 19:30:02 2015
GPGPU-Sim PTX: 4600000 instructions simulated : ctaid=(44,0,0) tid=(63,0,0)
GPGPU-Sim uArch: cycles simulated: 63500  inst.: 4661312 (ipc=73.4) sim_rate=43974 (inst/sec) elapsed = 0:0:01:46 / Mon May 11 19:30:03 2015
GPGPU-Sim PTX: 4700000 instructions simulated : ctaid=(46,0,0) tid=(31,0,0)
GPGPU-Sim uArch: cycles simulated: 64000  inst.: 4764096 (ipc=74.4) sim_rate=44112 (inst/sec) elapsed = 0:0:01:48 / Mon May 11 19:30:05 2015
GPGPU-Sim PTX: 4800000 instructions simulated : ctaid=(5,0,0) tid=(63,0,0)
GPGPU-Sim uArch: cycles simulated: 64500  inst.: 4865024 (ipc=75.4) sim_rate=44633 (inst/sec) elapsed = 0:0:01:49 / Mon May 11 19:30:06 2015
GPGPU-Sim PTX: 4900000 instructions simulated : ctaid=(43,0,0) tid=(31,0,0)
GPGPU-Sim uArch: cycles simulated: 65000  inst.: 4964096 (ipc=76.4) sim_rate=45128 (inst/sec) elapsed = 0:0:01:50 / Mon May 11 19:30:07 2015
GPGPU-Sim PTX: 5000000 instructions simulated : ctaid=(8,0,0) tid=(63,0,0)
GPGPU-Sim uArch: cycles simulated: 65500  inst.: 5065792 (ipc=77.3) sim_rate=45637 (inst/sec) elapsed = 0:0:01:51 / Mon May 11 19:30:08 2015
GPGPU-Sim PTX: 5100000 instructions simulated : ctaid=(63,0,0) tid=(31,0,0)
GPGPU-Sim uArch: cycles simulated: 66000  inst.: 5163520 (ipc=78.2) sim_rate=46102 (inst/sec) elapsed = 0:0:01:52 / Mon May 11 19:30:09 2015
GPGPU-Sim PTX: 5200000 instructions simulated : ctaid=(4,0,0) tid=(63,0,0)
GPGPU-Sim uArch: cycles simulated: 66500  inst.: 5272704 (ipc=79.3) sim_rate=46251 (inst/sec) elapsed = 0:0:01:54 / Mon May 11 19:30:11 2015
GPGPU-Sim PTX: 5300000 instructions simulated : ctaid=(35,0,0) tid=(31,0,0)
GPGPU-Sim uArch: cycles simulated: 67000  inst.: 5372096 (ipc=80.2) sim_rate=46713 (inst/sec) elapsed = 0:0:01:55 / Mon May 11 19:30:12 2015
GPGPU-Sim PTX: 5400000 instructions simulated : ctaid=(19,0,0) tid=(63,0,0)
GPGPU-Sim uArch: cycles simulated: 67500  inst.: 5467520 (ipc=81.0) sim_rate=47133 (inst/sec) elapsed = 0:0:01:56 / Mon May 11 19:30:13 2015
GPGPU-Sim PTX: 5500000 instructions simulated : ctaid=(33,0,0) tid=(31,0,0)
GPGPU-Sim PTX: 5600000 instructions simulated : ctaid=(26,0,0) tid=(63,0,0)
GPGPU-Sim uArch: cycles simulated: 68000  inst.: 5575744 (ipc=82.0) sim_rate=47655 (inst/sec) elapsed = 0:0:01:57 / Mon May 11 19:30:14 2015
GPGPU-Sim PTX: 5700000 instructions simulated : ctaid=(11,0,0) tid=(31,0,0)
GPGPU-Sim uArch: cycles simulated: 68500  inst.: 5694336 (ipc=83.1) sim_rate=48257 (inst/sec) elapsed = 0:0:01:58 / Mon May 11 19:30:15 2015
GPGPU-Sim PTX: 5800000 instructions simulated : ctaid=(37,0,0) tid=(63,0,0)
GPGPU-Sim uArch: cycles simulated: 69000  inst.: 5812160 (ipc=84.2) sim_rate=48434 (inst/sec) elapsed = 0:0:02:00 / Mon May 11 19:30:17 2015
GPGPU-Sim PTX: 5900000 instructions simulated : ctaid=(12,0,0) tid=(31,0,0)
GPGPU-Sim uArch: cycles simulated: 69500  inst.: 5928640 (ipc=85.3) sim_rate=48997 (inst/sec) elapsed = 0:0:02:01 / Mon May 11 19:30:18 2015
GPGPU-Sim PTX: 6000000 instructions simulated : ctaid=(23,0,0) tid=(63,0,0)
GPGPU-Sim uArch: cycles simulated: 70000  inst.: 6045248 (ipc=86.4) sim_rate=49148 (inst/sec) elapsed = 0:0:02:03 / Mon May 11 19:30:20 2015
GPGPU-Sim PTX: 6100000 instructions simulated : ctaid=(8,0,0) tid=(31,0,0)
GPGPU-Sim uArch: cycles simulated: 70500  inst.: 6157248 (ipc=87.3) sim_rate=49655 (inst/sec) elapsed = 0:0:02:04 / Mon May 11 19:30:21 2015
GPGPU-Sim PTX: 6200000 instructions simulated : ctaid=(56,0,0) tid=(63,0,0)
GPGPU-Sim uArch: cycles simulated: 71000  inst.: 6273984 (ipc=88.4) sim_rate=50191 (inst/sec) elapsed = 0:0:02:05 / Mon May 11 19:30:22 2015
GPGPU-Sim PTX: 6300000 instructions simulated : ctaid=(20,0,0) tid=(31,0,0)
GPGPU-Sim PTX: 6400000 instructions simulated : ctaid=(3,0,0) tid=(63,0,0)
GPGPU-Sim uArch: cycles simulated: 71500  inst.: 6393216 (ipc=89.4) sim_rate=50340 (inst/sec) elapsed = 0:0:02:07 / Mon May 11 19:30:24 2015
GPGPU-Sim PTX: 6500000 instructions simulated : ctaid=(13,0,0) tid=(31,0,0)
GPGPU-Sim uArch: cycles simulated: 72000  inst.: 6511232 (ipc=90.4) sim_rate=50869 (inst/sec) elapsed = 0:0:02:08 / Mon May 11 19:30:25 2015
GPGPU-Sim PTX: 6600000 instructions simulated : ctaid=(20,0,0) tid=(63,0,0)
GPGPU-Sim uArch: cycles simulated: 72500  inst.: 6624256 (ipc=91.4) sim_rate=50955 (inst/sec) elapsed = 0:0:02:10 / Mon May 11 19:30:27 2015
GPGPU-Sim PTX: 6700000 instructions simulated : ctaid=(46,0,0) tid=(31,0,0)
GPGPU-Sim uArch: cycles simulated: 73000  inst.: 6735936 (ipc=92.3) sim_rate=51419 (inst/sec) elapsed = 0:0:02:11 / Mon May 11 19:30:28 2015
GPGPU-Sim PTX: 6800000 instructions simulated : ctaid=(53,0,0) tid=(63,0,0)
GPGPU-Sim uArch: cycles simulated: 73500  inst.: 6853056 (ipc=93.2) sim_rate=51917 (inst/sec) elapsed = 0:0:02:12 / Mon May 11 19:30:29 2015
GPGPU-Sim PTX: 6900000 instructions simulated : ctaid=(45,0,0) tid=(31,0,0)
GPGPU-Sim uArch: cycles simulated: 74000  inst.: 6966848 (ipc=94.1) sim_rate=52382 (inst/sec) elapsed = 0:0:02:13 / Mon May 11 19:30:30 2015
GPGPU-Sim PTX: 7000000 instructions simulated : ctaid=(21,0,0) tid=(63,0,0)
GPGPU-Sim PTX: 7100000 instructions simulated : ctaid=(0,0,0) tid=(31,0,0)
GPGPU-Sim uArch: cycles simulated: 74500  inst.: 7084032 (ipc=95.1) sim_rate=52474 (inst/sec) elapsed = 0:0:02:15 / Mon May 11 19:30:32 2015
GPGPU-Sim PTX: 7200000 instructions simulated : ctaid=(26,0,0) tid=(63,0,0)
GPGPU-Sim uArch: cycles simulated: 75000  inst.: 7199104 (ipc=96.0) sim_rate=52934 (inst/sec) elapsed = 0:0:02:16 / Mon May 11 19:30:33 2015
GPGPU-Sim PTX: 7300000 instructions simulated : ctaid=(48,0,0) tid=(31,0,0)
GPGPU-Sim uArch: cycles simulated: 75500  inst.: 7314432 (ipc=96.9) sim_rate=53390 (inst/sec) elapsed = 0:0:02:17 / Mon May 11 19:30:34 2015
GPGPU-Sim PTX: 7400000 instructions simulated : ctaid=(30,0,0) tid=(63,0,0)
GPGPU-Sim uArch: cycles simulated: 76000  inst.: 7425664 (ipc=97.7) sim_rate=53809 (inst/sec) elapsed = 0:0:02:18 / Mon May 11 19:30:35 2015
GPGPU-Sim PTX: 7500000 instructions simulated : ctaid=(25,0,0) tid=(31,0,0)
GPGPU-Sim uArch: cycles simulated: 76500  inst.: 7542720 (ipc=98.6) sim_rate=53876 (inst/sec) elapsed = 0:0:02:20 / Mon May 11 19:30:37 2015
GPGPU-Sim PTX: 7600000 instructions simulated : ctaid=(61,0,0) tid=(63,0,0)
GPGPU-Sim uArch: cycles simulated: 77000  inst.: 7657856 (ipc=99.5) sim_rate=54311 (inst/sec) elapsed = 0:0:02:21 / Mon May 11 19:30:38 2015
GPGPU-Sim PTX: 7700000 instructions simulated : ctaid=(37,0,0) tid=(31,0,0)
GPGPU-Sim uArch: cycles simulated: 77500  inst.: 7770048 (ipc=100.3) sim_rate=54718 (inst/sec) elapsed = 0:0:02:22 / Mon May 11 19:30:39 2015
GPGPU-Sim PTX: 7800000 instructions simulated : ctaid=(27,0,0) tid=(63,0,0)
GPGPU-Sim PTX: 7900000 instructions simulated : ctaid=(21,0,0) tid=(31,0,0)
GPGPU-Sim uArch: cycles simulated: 78000  inst.: 7883200 (ipc=101.1) sim_rate=54744 (inst/sec) elapsed = 0:0:02:24 / Mon May 11 19:30:41 2015
GPGPU-Sim PTX: 8000000 instructions simulated : ctaid=(50,0,0) tid=(63,0,0)
GPGPU-Sim uArch: cycles simulated: 78500  inst.: 7998336 (ipc=101.9) sim_rate=55160 (inst/sec) elapsed = 0:0:02:25 / Mon May 11 19:30:42 2015
GPGPU-Sim PTX: 8100000 instructions simulated : ctaid=(45,0,0) tid=(31,0,0)
GPGPU-Sim uArch: cycles simulated: 79000  inst.: 8113088 (ipc=102.7) sim_rate=55191 (inst/sec) elapsed = 0:0:02:27 / Mon May 11 19:30:44 2015
GPGPU-Sim PTX: 8200000 instructions simulated : ctaid=(29,0,0) tid=(63,0,0)
GPGPU-Sim uArch: cycles simulated: 79500  inst.: 8228608 (ipc=103.5) sim_rate=55598 (inst/sec) elapsed = 0:0:02:28 / Mon May 11 19:30:45 2015
GPGPU-Sim PTX: 8300000 instructions simulated : ctaid=(57,0,0) tid=(31,0,0)
GPGPU-Sim uArch: cycles simulated: 80000  inst.: 8337984 (ipc=104.2) sim_rate=55959 (inst/sec) elapsed = 0:0:02:29 / Mon May 11 19:30:46 2015
GPGPU-Sim PTX: 8400000 instructions simulated : ctaid=(55,0,0) tid=(63,0,0)
[...]
dq_lat_table:0 	0 	0 	0 	0 	0 	0 	0 	0 	0 	0 	0 	0 	0 	0 	0 	0 	0 	0 	0 	0 	0 	0 	0 	0 	0 	0 	0 	0 	0 	0 	0 	
mf_lat_table:0 	0 	0 	0 	0 	0 	0 	7258 	1381728 	550173 	49007 	0 	0 	0 	0 	0 	0 	0 	0 	0 	0 	0 	0 	0 	0 	0 	0 	0 	0 	0 	0 	0 	
icnt2mem_lat_table:0 	0 	0 	1137748 	1114032 	272712 	156411 	159365 	62413 	21087 	30 	0 	0 	0 	0 	0 	0 	0 	0 	0 	0 	0 	0 	0 	
icnt2sh_lat_table:0 	0 	0 	1066986 	526924 	3528 	0 	0 	0 	0 	0 	556 	1397 	2793 	5601 	9922 	211 	0 	6 	6 	95360 	271028 	3848 	0 	
mf_lat_pw_table:0 	0 	0 	0 	0 	0 	0 	3 	7739 	4845 	221 	0 	0 	0 	0 	0 	0 	0 	0 	0 	0 	0 	0 	0 	0 	0 	0 	0 	0 	0 	0 	0 	
maximum concurrent accesses to same row:
dram[0]:        52        52        32        36        56        60        44        36        28        32        40        36        36        32        56        60 
dram[1]:         2         0         0         0         0         0         0         0         0         0         0         0         0         0         0         0 
dram[2]:        52        52        28        28        56        60        44        44        28        32        28        28        28        28        56        60 
dram[3]:         2         0         0         0         0         0         0         0         0         0         0         0         0         0         0         0 
dram[4]:        52        52        28        24        56        60        48        52        24        24        24        24        24        24        56        60 
dram[5]:         0         0         0         0         0         0         0         0         0         0         0         0         0         0         0         0 
maximum service time to same row:
dram[0]:      4669      6850    102528      7097      8159      5518    101273     96945      6850      6009      7019      6850      6850      8662      6850      8610 
dram[1]:   2360282      1381         0         0   1554772   1554325   4668932   4664318         0         0         0         0         0         0         0         0 
dram[2]:      4630      5888      6724      6764      5905      6036      5980      4681      5925      5709      5794      5981      5961      8273      5903      4427 
dram[3]:   2458472     21984         0         0   1556940   1556740   4789121   4789177         0         0         0         0         0         0         0         0 
dram[4]:      6421      3807      9667      6723      4306      7905      6438      5644      3843      6439      5075      3870      6422      5075      5642      6420 
dram[5]:       232   1520582         0         0   1569772   1572644   4651562   4650879         0         0         0         0         0         0         0         0 
average row accesses per activate:
dram[0]:  3.545986  3.536216  3.575458  3.653521  3.626849  3.571502  3.566495  3.637731  3.522955  3.561206  3.583876  3.541376  3.554178  3.564994  3.555306  3.560923 
dram[1]:  4.000000  4.000000      -nan      -nan 20.000000 20.000000 24.000000 20.000000      -nan      -nan      -nan      -nan      -nan      -nan      -nan      -nan 
dram[2]:  3.395505  3.390461  3.462355  3.484866  3.444897  3.450186  3.464435  3.492200  3.395545  3.375731  3.422565  3.418955  3.383175  3.441403  3.379674  3.394166 
dram[3]:  4.000000  4.000000      -nan      -nan 20.000000 24.000000 24.000000 20.000000      -nan      -nan      -nan      -nan      -nan      -nan      -nan      -nan 
dram[4]:  3.258178  3.266151  3.313629  3.319726  3.301948  3.305187  3.333676  3.333982  3.285499  3.257250  3.315058  3.276271  3.260160  3.272478  3.297576  3.235440 
dram[5]:  3.000000  4.000000      -nan      -nan 20.000000 24.000000 20.000000 20.000000      -nan      -nan      -nan      -nan      -nan      -nan      -nan      -nan 
average row locality = 3874135/1131916 = 3.422635
number of total memory accesses made:
dram[0]:         0         0         0         0         0         0         0         0         0         0         0         0         0         0         0         0 
dram[1]:         0         0         0         0         0         0         0         0         0         0         0         0         0         0         0         0 
dram[2]:         0         0         0         0         0         0         0         0         0         0         0         0         0         0         0         0 
dram[3]:         0         0         0         0         0         0         0         0         0         0         0         0         0         0         0         0 
dram[4]:         0         0         0         0         0         0         0         0         0         0         0         0         0         0         0         0 
dram[5]:         0         0         0         0         0         0         0         0         0         0         0         0         0         0         0         0 
total accesses: 0
min_bank_accesses = 0!
min_chip_accesses = 0!
number of total read accesses:
dram[0]:     52329     52192     50137     50788     51500     50289     51107     52344     52000     52002     53413     52912     53284     53407     53918     53788 
dram[1]:         4         4         0         0        10        10        12        10         0         0         0         0         0         0         0         0 
dram[2]:     52985     52646     50930     50710     51105     51367     52155     52685     52674     52116     54177     54222     53111     54177     54042     54407 
dram[3]:         4         4         0         0        10        12        12        10         0         0         0         0         0         0         0         0 
dram[4]:     54595     54364     52159     52465     53084     52571     53597     54312     54543     54123     55765     55548     55294     55769     56585     55502 
dram[5]:         3         4         0         0        10        12        10        10         0         0         0         0         0         0         0         0 
total reads: 2549346
min_bank_accesses = 0!
chip skew: 870276/49 = 17760.73
number of total write accesses:
dram[0]:     27094     27044     26056     26104     26470     26134     26450     26984     27344     27274     27984     27672     27570     27882     28334     28334 
dram[1]:         0         0         0         0        10        10        12        10         0         0         0         0         0         0         0         0 
dram[2]:     27390     27396     26374     26316     26698     26552     26796     27234     27651     27558     28276     28062     28004     28162     28662     28672 
dram[3]:         0         0         0         0        10        12        12        10         0         0         0         0         0         0         0         0 
dram[4]:     28078     27992     26934     26986     27434     27084     27398     27874     28268     28204     28948     28662     28616     28926     29396     29328 
dram[5]:         0         0         0         0        10        12        10        10         0         0         0         0         0         0         0         0 
total reads: 1324789
min_bank_accesses = 0!
chip skew: 450128/42 = 10717.33
average mf latency per bank:
dram[0]:        222       222       227       225       227       229       229       228       225       225       224       226       223       225       226       228
dram[1]:       2614         0    none      none         207       212       134       131    none      none      none      none      none      none      none      none  
dram[2]:        221       223       224       225       227       227       227       227       224       225       223       222       225       223       227       227
dram[3]:       1417         0    none      none         208       206       131       131    none      none      none      none      none      none      none      none  
dram[4]:        228       230       232       232       234       236       234       236       229       231       229       230       230       231       232       235
dram[5]:          0         0    none      none         205       204       133       131    none      none      none      none      none      none      none      none  
maximum mf latency per bank:
dram[0]:       1883      1872      1710      1783      1846      1738      1894      1952      1787      1878      1952      1854      1752      1720      1720      1765
dram[1]:        499         0         0         0       278       278       310       278         0         0         0         0         0         0         0         0
dram[2]:       1771      1716      1701      1708      1649      1742      1879      1764      1708      1741      1753      1745      1760      1709      1856      1739
dram[3]:        360         0         0         0       278       278       278       278         0         0         0         0         0         0         0         0
dram[4]:       1659      1680      1751      1679      1611      1845      1736      1910      1840      1797      1631      1967      1764      1775      1756      1679
dram[5]:          0         0         0         0       278       294       292       278         0         0         0         0         0         0         0         0

Number of Memory Banks Accessed per Memory Operation per Warp (from 0):
0	0	0	0	0	0	0	0	0	0	0	0	0	0	0	0	0	0	0	0	0	0	0	0	0	0	0	0	0	0	0	0	0	0	0	0	0	0	0	0	0	0	0	0	0	0	0	0	0	0	0	0	0	0	0	0	0	0	0	0	0	0	0	0	0	0	0	0	0	0	0	0	0	0	0	0	0	0	0	0	0	0	0	0	0	0	0	0	0	0	0	0	0	0	0	0	
Average # of Memory Banks Accessed per Memory Operation per Warp=-nan

position of mrq chosen
0	0	0	0	0	0	0	0	0	0	0	0	0	0	0	0	

average position of mrq chosen = -nan
Memory Partition 0: 
Cache L2_bank_000:
MSHR contents
MSHR: tag=0x80007000, atomic=0 1 entries : 0x7f7b6f5b9b90 :  mf: uid=16597583, sid08:w03, part=0, addr=0x80007000, load , size=128, unknown  status = IN_PARTITION_DRAM (6405885), 

Cache L2_bank_001:
MSHR contents

In Dram Latency Queue (total = 0): 
DRAM[0]: 16 bks, busW=4 BL=8 CL=12, tRRD=2 tCCD=6, tRCD=12 tRAS=28 tRP=12 tRC=40
n_cmd=8455771 n_nop=5204289 n_act=355609 n_pre=355593 n_req=1270140 n_rd=1670820 n_write=869460 bw_util=0.6008
n_activity=8138064 dram_eff=0.6243
bk0: 104658a 5720671i bk1: 104384a 5683039i bk2: 100274a 5758327i bk3: 101576a 5708329i bk4: 103000a 5640415i bk5: 100578a 5664233i bk6: 102214a 5585192i bk7: 104688a 5489619i bk8: 104000a 5740120i bk9: 104004a 5703426i bk10: 106826a 5595013i bk11: 105824a 5582497i bk12: 106568a 5510014i bk13: 106814a 5469387i bk14: 107836a 5415034i bk15: 107576a 5375088i 
dram_util_bins: 0 0 0 0 0 0 0 0 0 0
dram_eff_bins: 0 0 0 0 0 0 0 0 0 0
mrqq: max=16 avg=10.9547
Memory Partition 1: 
Cache L2_bank_002:
MSHR contents

Cache L2_bank_003:
MSHR contents

In Dram Latency Queue (total = 0): 
DRAM[1]: 16 bks, busW=4 BL=8 CL=12, tRRD=2 tCCD=6, tRCD=12 tRAS=28 tRP=12 tRC=40
n_cmd=8455771 n_nop=8455579 n_act=7 n_pre=1 n_req=92 n_rd=100 n_write=84 bw_util=4.352e-05
n_activity=1453 dram_eff=0.2533
bk0: 8a 8455720i bk1: 8a 8455743i bk2: 0a 8455772i bk3: 0a 8455773i bk4: 20a 8455530i bk5: 20a 8455529i bk6: 24a 8455469i bk7: 20a 8455527i bk8: 0a 8455768i bk9: 0a 8455768i bk10: 0a 8455769i bk11: 0a 8455770i bk12: 0a 8455771i bk13: 0a 8455772i bk14: 0a 8455772i bk15: 0a 8455772i 
dram_util_bins: 0 0 0 0 0 0 0 0 0 0
dram_eff_bins: 0 0 0 0 0 0 0 0 0 0
mrqq: max=5 avg=0.000122047
Memory Partition 2: 
Cache L2_bank_004:
MSHR contents

Cache L2_bank_005:
MSHR contents

In Dram Latency Queue (total = 0): 
DRAM[2]: 16 bks, busW=4 BL=8 CL=12, tRRD=2 tCCD=6, tRCD=12 tRAS=28 tRP=12 tRC=40
n_cmd=8455771 n_nop=5139525 n_act=374819 n_pre=374803 n_req=1283312 n_rd=1687018 n_write=879606 bw_util=0.6071
n_activity=8153708 dram_eff=0.6296
bk0: 105970a 5627826i bk1: 105292a 5613690i bk2: 101860a 5667184i bk3: 101420a 5661412i bk4: 102210a 5615940i bk5: 102734a 5561705i bk6: 104310a 5482269i bk7: 105370a 5414660i bk8: 105348a 5651326i bk9: 104232a 5644641i bk10: 108354a 5505274i bk11: 108444a 5448431i bk12: 106222a 5472937i bk13: 108354a 5380718i bk14: 108084a 5345611i bk15: 108814a 5286147i 
dram_util_bins: 0 0 0 0 0 0 0 0 0 0
dram_eff_bins: 0 0 0 0 0 0 0 0 0 0
mrqq: max=16 avg=11.1848
Memory Partition 3: 
Cache L2_bank_006:
MSHR contents

Cache L2_bank_007:
MSHR contents

In Dram Latency Queue (total = 0): 
DRAM[3]: 16 bks, busW=4 BL=8 CL=12, tRRD=2 tCCD=6, tRCD=12 tRAS=28 tRP=12 tRC=40
n_cmd=8455771 n_nop=8455571 n_act=7 n_pre=1 n_req=96 n_rd=104 n_write=88 bw_util=4.541e-05
n_activity=1511 dram_eff=0.2541
bk0: 8a 8455720i bk1: 8a 8455742i bk2: 0a 8455769i bk3: 0a 8455773i bk4: 20a 8455531i bk5: 24a 8455483i bk6: 24a 8455481i bk7: 20a 8455526i bk8: 0a 8455767i bk9: 0a 8455768i bk10: 0a 8455769i bk11: 0a 8455771i bk12: 0a 8455771i bk13: 0a 8455771i bk14: 0a 8455772i bk15: 0a 8455773i 
dram_util_bins: 0 0 0 0 0 0 0 0 0 0
dram_eff_bins: 0 0 0 0 0 0 0 0 0 0
mrqq: max=3 avg=0.000105963
Memory Partition 4: 
Cache L2_bank_008:
MSHR contents

Cache L2_bank_009:
MSHR contents

In Dram Latency Queue (total = 0): 
DRAM[4]: 16 bks, busW=4 BL=8 CL=12, tRRD=2 tCCD=6, tRCD=12 tRAS=28 tRP=12 tRC=40
n_cmd=8455771 n_nop=5012035 n_act=401472 n_pre=401456 n_req=1320404 n_rd=1740552 n_write=900256 bw_util=0.6246
n_activity=8332412 dram_eff=0.6339
bk0: 109190a 5490849i bk1: 108728a 5464554i bk2: 104318a 5554959i bk3: 104930a 5506392i bk4: 106168a 5436876i bk5: 105142a 5444873i bk6: 107194a 5344034i bk7: 108624a 5262214i bk8: 109086a 5498434i bk9: 108246a 5494108i bk10: 111530a 5352335i bk11: 111096a 5324473i bk12: 110588a 5300637i bk13: 111538a 5217482i bk14: 113170a 5134732i bk15: 111004a 5155811i 
dram_util_bins: 0 0 0 0 0 0 0 0 0 0
dram_eff_bins: 0 0 0 0 0 0 0 0 0 0
mrqq: max=16 avg=11.654
Memory Partition 5: 
Cache L2_bank_010:
MSHR contents

Cache L2_bank_011:
MSHR contents

In Dram Latency Queue (total = 0): 
DRAM[5]: 16 bks, busW=4 BL=8 CL=12, tRRD=2 tCCD=6, tRCD=12 tRAS=28 tRP=12 tRC=40
n_cmd=8455771 n_nop=8455583 n_act=6 n_pre=0 n_req=91 n_rd=98 n_write=84 bw_util=4.305e-05
n_activity=1353 dram_eff=0.269
bk0: 6a 8455747i bk1: 8a 8455742i bk2: 0a 8455770i bk3: 0a 8455772i bk4: 20a 8455519i bk5: 24a 8455455i bk6: 20a 8455504i bk7: 20a 8455515i bk8: 0a 8455768i bk9: 0a 8455769i bk10: 0a 8455770i bk11: 0a 8455770i bk12: 0a 8455771i bk13: 0a 8455771i bk14: 0a 8455772i bk15: 0a 8455772i 
dram_util_bins: 0 0 0 0 0 0 0 0 0 0
dram_eff_bins: 0 0 0 0 0 0 0 0 0 0
mrqq: max=4 avg=0.000113059

========= L2 cache stats =========
L2_cache_bank[0]: Access = 479529, Miss = 417688, Miss_rate = 0.871, Pending_hits = 7, Reservation_fails = 64244
L2_cache_bank[1]: Access = 479809, Miss = 417722, Miss_rate = 0.871, Pending_hits = 25, Reservation_fails = 74702
L2_cache_bank[2]: Access = 107, Miss = 26, Miss_rate = 0.243, Pending_hits = 3, Reservation_fails = 100
L2_cache_bank[3]: Access = 90, Miss = 24, Miss_rate = 0.267, Pending_hits = 12, Reservation_fails = 381
L2_cache_bank[4]: Access = 484562, Miss = 421179, Miss_rate = 0.869, Pending_hits = 8, Reservation_fails = 72556
L2_cache_bank[5]: Access = 484754, Miss = 422330, Miss_rate = 0.871, Pending_hits = 7, Reservation_fails = 69667
L2_cache_bank[6]: Access = 92, Miss = 26, Miss_rate = 0.283, Pending_hits = 0, Reservation_fails = 0
L2_cache_bank[7]: Access = 94, Miss = 26, Miss_rate = 0.277, Pending_hits = 5, Reservation_fails = 0
L2_cache_bank[8]: Access = 497286, Miss = 435622, Miss_rate = 0.876, Pending_hits = 8, Reservation_fails = 92862
L2_cache_bank[9]: Access = 497306, Miss = 434654, Miss_rate = 0.874, Pending_hits = 5, Reservation_fails = 100200
L2_cache_bank[10]: Access = 75, Miss = 23, Miss_rate = 0.307, Pending_hits = 3, Reservation_fails = 116
L2_cache_bank[11]: Access = 94, Miss = 26, Miss_rate = 0.277, Pending_hits = 0, Reservation_fails = 0
L2_total_cache_accesses = 2923798
L2_total_cache_misses = 2549346
L2_total_cache_miss_rate = 0.8719
L2_total_cache_pending_hits = 83
L2_total_cache_reservation_fails = 474828
L2_total_cache_breakdown:
	L2_cache_stats_breakdown[LOCAL_ACC_R][HIT] = 3554
	L2_cache_stats_breakdown[LOCAL_ACC_R][HIT_RESERVED] = 29
	L2_cache_stats_breakdown[LOCAL_ACC_R][MISS] = 1593705
	L2_cache_stats_breakdown[LOCAL_ACC_R][RESERVATION_FAIL] = 286321
	L2_cache_stats_breakdown[CONST_ACC_R][HIT] = 133
	L2_cache_stats_breakdown[CONST_ACC_R][HIT_RESERVED] = 9
	L2_cache_stats_breakdown[CONST_ACC_R][MISS] = 8
	L2_cache_stats_breakdown[CONST_ACC_R][RESERVATION_FAIL] = 308
	L2_cache_stats_breakdown[GLOBAL_ACC_W][HIT] = 64
	L2_cache_stats_breakdown[GLOBAL_ACC_W][MISS] = 320
	L2_cache_stats_breakdown[LOCAL_ACC_W][HIT] = 3784
	L2_cache_stats_breakdown[LOCAL_ACC_W][MISS] = 386560
	L2_cache_stats_breakdown[LOCAL_ACC_W][RESERVATION_FAIL] = 97726
	L2_cache_stats_breakdown[L1_WRBK_ACC][HIT] = 366357
	L2_cache_stats_breakdown[L1_WRBK_ACC][MISS] = 568675
	L2_cache_stats_breakdown[L1_WRBK_ACC][RESERVATION_FAIL] = 89570
	L2_cache_stats_breakdown[INST_ACC_R][HIT] = 477
	L2_cache_stats_breakdown[INST_ACC_R][HIT_RESERVED] = 45
	L2_cache_stats_breakdown[INST_ACC_R][MISS] = 78
	L2_cache_stats_breakdown[INST_ACC_R][RESERVATION_FAIL] = 903
L2_cache_data_port_util = 0.034
L2_cache_fill_port_util = 0.133

icnt_total_pkts_mem_to_simt=8380618
icnt_total_pkts_simt_to_mem=8226838
LD_mem_lat_dist  0 0 0 0 0 0 0 0 0 0 0 0 0 0 0 0 0 0 0 0 0 0 0 0 0 0 0
ST_mem_lat_dist  0 0 0 0 0 0 0 0 0 0 0 0 0 0 0 0 0 0 0 0 0 0 0 0 0 0 0
----------------------------Interconnect-DETAILS--------------------------------
Class 0:
Packet latency average = 20.7047
	minimum = 6
	maximum = 548
Network latency average = 17.3137
	minimum = 6
	maximum = 525
Slowest packet = 1009844
Flit latency average = 14.5056
	minimum = 6
	maximum = 521
Slowest flit = 3638560
Fragmentation average = 0.53162
	minimum = 0
	maximum = 472
Injected packet rate average = 0.0300359
	minimum = 1.03866e-05 (at node 18)
	maximum = 0.0584925 (at node 23)
Accepted packet rate average = 0.0300359
	minimum = 1.03866e-05 (at node 18)
	maximum = 0.0809555 (at node 23)
Injected flit rate average = 0.0998128
	minimum = 3.53146e-05 (at node 18)
	maximum = 0.240834 (at node 23)
Accepted flit rate average= 0.0998128
	minimum = 2.70052e-05 (at node 18)
	maximum = 0.222436 (at node 23)
Injected packet length average = 3.32312
Accepted packet length average = 3.32312
Total in-flight flits = 0 (0 measured)
====== Overall Traffic Statistics ======
====== Traffic class 0 ======
Packet latency average = 18.5817 (2 samples)
	minimum = 6 (2 samples)
	maximum = 611.5 (2 samples)
Network latency average = 15.5588 (2 samples)
	minimum = 6 (2 samples)
	maximum = 523 (2 samples)
Flit latency average = 12.8112 (2 samples)
	minimum = 6 (2 samples)
	maximum = 508.5 (2 samples)
Fragmentation average = 0.338381 (2 samples)
	minimum = 0 (2 samples)
	maximum = 453 (2 samples)
Injected packet rate average = 0.0267508 (2 samples)
	minimum = 8.334e-06 (2 samples)
	maximum = 0.0482631 (2 samples)
Accepted packet rate average = 0.0267508 (2 samples)
	minimum = 8.334e-06 (2 samples)
	maximum = 0.075931 (2 samples)
Injected flit rate average = 0.0921813 (2 samples)
	minimum = 2.0798e-05 (2 samples)
	maximum = 0.208813 (2 samples)
Accepted flit rate average = 0.0921813 (2 samples)
	minimum = 2.9206e-05 (2 samples)
	maximum = 0.219068 (2 samples)
Injected packet size average = 3.44593 (2 samples)
Accepted packet size average = 3.44593 (2 samples)
Hops average = 1 (2 samples)
----------------------------END-of-Interconnect-DETAILS-------------------------


gpgpu_simulation_time = 0 days, 3 hrs, 24 min, 7 sec (12247 sec)
gpgpu_simulation_rate = 81581 (inst/sec)
gpgpu_simulation_rate = 523 (cycle/sec)
GPGPU-Sim: synchronize waiting for inactive GPU simulation
GPGPU-Sim API: Stream Manager State
GPGPU-Sim: detected inactive GPU simulation thread
v  =    224.32334900
Lb =     21.34812355
Time (Greeks)   : 8586534.000000 msec

Press ENTER to exit...
