

        *** GPGPU-Sim Simulator Version 3.2.2  [build 0] ***


GPGPU-Sim PTX: simulation mode 0 (can change with PTX_SIM_MODE_FUNC environment variable:
               1=functional simulation only, 0=detailed performance simulator)
GPGPU-Sim: Configuration options:

-network_mode                           1 # Interconnection network mode
-inter_config_file   config_fermi_islip.icnt # Interconnection network config file
-gpgpu_ptx_use_cuobjdump                    1 # Use cuobjdump to extract ptx and sass from binaries
-gpgpu_experimental_lib_support                    0 # Try to extract code from cuda libraries [Broken because of unknown cudaGetExportTable]
-gpgpu_ptx_convert_to_ptxplus                    0 # Convert SASS (native ISA) to ptxplus and run ptxplus
-gpgpu_ptx_force_max_capability                   20 # Force maximum compute capability
-gpgpu_ptx_inst_debug_to_file                    0 # Dump executed instructions' debug information to file
-gpgpu_ptx_inst_debug_file       inst_debug.txt # Executed instructions' debug output file
-gpgpu_ptx_inst_debug_thread_uid                    1 # Thread UID for executed instructions' debug output
-gpgpu_simd_model                       1 # 1 = post-dominator
-gpgpu_shader_core_pipeline              1536:32 # shader core pipeline config, i.e., {<nthread>:<warpsize>}
-gpgpu_tex_cache:l1  4:128:24,L:R:m:N:L,F:128:4,128:2 # per-shader L1 texture cache  (READ-ONLY) config  {<nsets>:<bsize>:<assoc>,<rep>:<wr>:<alloc>:<wr_alloc>,<mshr>:<N>:<merge>,<mq>:<rf>}
-gpgpu_const_cache:l1 64:64:2,L:R:f:N:L,A:2:32,4 # per-shader L1 constant memory cache  (READ-ONLY) config  {<nsets>:<bsize>:<assoc>,<rep>:<wr>:<alloc>:<wr_alloc>,<mshr>:<N>:<merge>,<mq>} 
-gpgpu_cache:il1     4:128:4,L:R:f:N:L,A:2:32,4 # shader L1 instruction cache config  {<nsets>:<bsize>:<assoc>,<rep>:<wr>:<alloc>:<wr_alloc>,<mshr>:<N>:<merge>,<mq>} 
-gpgpu_cache:dl1     32:128:4,L:L:m:N:H,A:32:8,8 # per-shader L1 data cache config  {<nsets>:<bsize>:<assoc>,<rep>:<wr>:<alloc>:<wr_alloc>,<mshr>:<N>:<merge>,<mq> | none}
-gpgpu_cache:dl1PrefL1                 none # per-shader L1 data cache config  {<nsets>:<bsize>:<assoc>,<rep>:<wr>:<alloc>:<wr_alloc>,<mshr>:<N>:<merge>,<mq> | none}
-gpgpu_cache:dl1PreShared                 none # per-shader L1 data cache config  {<nsets>:<bsize>:<assoc>,<rep>:<wr>:<alloc>:<wr_alloc>,<mshr>:<N>:<merge>,<mq> | none}
-gmem_skip_L1D                          0 # global memory access skip L1D cache (implements -Xptxas -dlcm=cg, default=no skip)
-gpgpu_perfect_mem                      0 # enable perfect memory mode (no cache miss)
-n_regfile_gating_group                    4 # group of lanes that should be read/written together)
-gpgpu_clock_gated_reg_file                    0 # enable clock gated reg file for power calculations
-gpgpu_clock_gated_lanes                    0 # enable clock gated lanes for power calculations
-gpgpu_shader_registers                32768 # Number of registers per shader core. Limits number of concurrent CTAs. (default 8192)
-gpgpu_shader_cta                       8 # Maximum number of concurrent CTAs in shader (default 8)
-gpgpu_num_cta_barriers                   16 # Maximum number of named barriers per CTA (default 16)
-gpgpu_n_clusters                      15 # number of processing clusters
-gpgpu_n_cores_per_cluster                    1 # number of simd cores per cluster
-gpgpu_n_cluster_ejection_buffer_size                    8 # number of packets in ejection buffer
-gpgpu_n_ldst_response_buffer_size                    2 # number of response packets in ld/st unit ejection buffer
-gpgpu_shmem_size                   16384 # Size of shared memory per shader core (default 16kB)
-gpgpu_shmem_size                   49152 # Size of shared memory per shader core (default 16kB)
-gpgpu_shmem_size_PrefL1                16384 # Size of shared memory per shader core (default 16kB)
-gpgpu_shmem_size_PrefShared                16384 # Size of shared memory per shader core (default 16kB)
-gpgpu_shmem_num_banks                   32 # Number of banks in the shared memory in each shader core (default 16)
-gpgpu_shmem_limited_broadcast                    0 # Limit shared memory to do one broadcast per cycle (default on)
-gpgpu_shmem_warp_parts                    1 # Number of portions a warp is divided into for shared memory bank conflict check 
-gpgpu_warpdistro_shader                   -1 # Specify which shader core to collect the warp size distribution from
-gpgpu_warp_issue_shader                    0 # Specify which shader core to collect the warp issue distribution from
-gpgpu_local_mem_map                    1 # Mapping from local memory space address to simulated GPU physical address space (default = enabled)
-gpgpu_num_reg_banks                   16 # Number of register banks (default = 8)
-gpgpu_reg_bank_use_warp_id                    0 # Use warp ID in mapping registers to banks (default = off)
-gpgpu_operand_collector_num_units_sp                    6 # number of collector units (default = 4)
-gpgpu_operand_collector_num_units_sfu                    8 # number of collector units (default = 4)
-gpgpu_operand_collector_num_units_mem                    2 # number of collector units (default = 2)
-gpgpu_operand_collector_num_units_gen                    0 # number of collector units (default = 0)
-gpgpu_operand_collector_num_in_ports_sp                    2 # number of collector unit in ports (default = 1)
-gpgpu_operand_collector_num_in_ports_sfu                    1 # number of collector unit in ports (default = 1)
-gpgpu_operand_collector_num_in_ports_mem                    1 # number of collector unit in ports (default = 1)
-gpgpu_operand_collector_num_in_ports_gen                    0 # number of collector unit in ports (default = 0)
-gpgpu_operand_collector_num_out_ports_sp                    2 # number of collector unit in ports (default = 1)
-gpgpu_operand_collector_num_out_ports_sfu                    1 # number of collector unit in ports (default = 1)
-gpgpu_operand_collector_num_out_ports_mem                    1 # number of collector unit in ports (default = 1)
-gpgpu_operand_collector_num_out_ports_gen                    0 # number of collector unit in ports (default = 0)
-gpgpu_coalesce_arch                   13 # Coalescing arch (default = 13, anything else is off for now)
-gpgpu_num_sched_per_core                    1 # Number of warp schedulers per core
-gpgpu_max_insn_issue_per_warp                    1 # Max number of instructions that can be issued per warp in one cycle by scheduler
-gpgpu_simt_core_sim_order                    1 # Select the simulation order of cores in a cluster (0=Fix, 1=Round-Robin)
-gpgpu_pipeline_widths        2,1,1,2,1,1,2 # Pipeline widths ID_OC_SP,ID_OC_SFU,ID_OC_MEM,OC_EX_SP,OC_EX_SFU,OC_EX_MEM,EX_WB
-gpgpu_num_sp_units                     2 # Number of SP units (default=1)
-gpgpu_num_sfu_units                    1 # Number of SF units (default=1)
-gpgpu_num_mem_units                    1 # Number if ldst units (default=1) WARNING: not hooked up to anything
-gpgpu_scheduler                      gto # Scheduler configuration: < lrr | gto | two_level_active > If two_level_active:<num_active_warps>:<inner_prioritization>:<outer_prioritization>For complete list of prioritization values see shader.h enum scheduler_prioritization_typeDefault: gto
-gpgpu_dram_scheduler                    1 # 0 = fifo, 1 = FR-FCFS (defaul)
-gpgpu_dram_partition_queues              8:8:8:8 # i2$:$2d:d2$:$2i
-l2_ideal                               0 # Use a ideal L2 cache that always hit
-gpgpu_cache:dl2     64:128:8,L:B:m:W:L,A:32:4,4:0,32 # unified banked L2 data cache config  {<nsets>:<bsize>:<assoc>,<rep>:<wr>:<alloc>:<wr_alloc>,<mshr>:<N>:<merge>,<mq>}
-gpgpu_cache:dl2_texture_only                    0 # L2 cache used for texture only
-gpgpu_n_mem                            6 # number of memory modules (e.g. memory controllers) in gpu
-gpgpu_n_sub_partition_per_mchannel                    2 # number of memory subpartition in each memory module
-gpgpu_n_mem_per_ctrlr                    2 # number of memory chips per memory controller
-gpgpu_memlatency_stat                   14 # track and display latency statistics 0x2 enables MC, 0x4 enables queue logs
-gpgpu_frfcfs_dram_sched_queue_size                   16 # 0 = unlimited (default); # entries per chip
-gpgpu_dram_return_queue_size                  116 # 0 = unlimited (default); # entries per chip
-gpgpu_dram_buswidth                    4 # default = 4 bytes (8 bytes per cycle at DDR)
-gpgpu_dram_burst_length                    8 # Burst length of each DRAM request (default = 4 data bus cycle)
-dram_data_command_freq_ratio                    4 # Frequency ratio between DRAM data bus and command bus (default = 2 times, i.e. DDR)
-gpgpu_dram_timing_opt nbk=16:CCD=2:RRD=6:RCD=12:RAS=28:RP=12:RC=40: CL=12:WL=4:CDLR=5:WR=12:nbkgrp=4:CCDL=3:RTPL=2 # DRAM timing parameters = {nbk:tCCD:tRRD:tRCD:tRAS:tRP:tRC:CL:WL:tCDLR:tWR:nbkgrp:tCCDL:tRTPL}
-rop_latency                          120 # ROP queue latency (default 85)
-dram_latency                         100 # DRAM latency (default 30)
-gpgpu_mem_addr_mapping dramid@8;00000000.00000000.00000000.00000000.0000RRRR.RRRRRRRR.BBBCCCCB.CCSSSSSS # mapping memory address to dram model {dramid@<start bit>;<memory address map>}
-gpgpu_mem_addr_test                    0 # run sweep test to check address mapping for aliased address
-gpgpu_mem_address_mask                    1 # 0 = old addressing mask, 1 = new addressing mask, 2 = new add. mask + flipped bank sel and chip sel bits
-gpuwattch_xml_file  gpuwattch_gtx480.xml # GPUWattch XML file
-power_simulation_enabled                    1 # Turn on power simulator (1=On, 0=Off)
-power_per_cycle_dump                    0 # Dump detailed power output each cycle
-power_trace_enabled                    0 # produce a file for the power trace (1=On, 0=Off)
-power_trace_zlevel                     6 # Compression level of the power trace output log (0=no comp, 9=highest)
-steady_power_levels_enabled                    0 # produce a file for the steady power levels (1=On, 0=Off)
-steady_state_definition                  8:4 # allowed deviation:number of samples
-gpgpu_max_cycle                        0 # terminates gpu simulation early (0 = no limit)
-gpgpu_max_insn                         0 # terminates gpu simulation early (0 = no limit)
-gpgpu_max_cta                          0 # terminates gpu simulation early (0 = no limit)
-gpgpu_runtime_stat                   500 # display runtime statistics such as dram utilization {<freq>:<flag>}
-liveness_message_freq                    1 # Minimum number of seconds between simulation liveness messages (0 = always print)
-gpgpu_flush_l1_cache                    0 # Flush L1 cache at the end of each kernel call
-gpgpu_flush_l2_cache                    0 # Flush L2 cache at the end of each kernel call
-gpgpu_deadlock_detect                    1 # Stop the simulation at deadlock (1=on (default), 0=off)
-gpgpu_ptx_instruction_classification                    0 # if enabled will classify ptx instruction types per kernel (Max 255 kernels now)
-gpgpu_ptx_sim_mode                     0 # Select between Performance (default) or Functional simulation (1)
-gpgpu_clock_domains 700.0:700.0:700.0:924.0 # Clock Domain Frequencies in MhZ {<Core Clock>:<ICNT Clock>:<L2 Clock>:<DRAM Clock>}
-gpgpu_max_concurrent_kernel                    8 # maximum kernels that can run concurrently on GPU
-gpgpu_cflog_interval                    0 # Interval between each snapshot in control flow logger
-visualizer_enabled                     0 # Turn on visualizer output (1=On, 0=Off)
-visualizer_outputfile                 NULL # Specifies the output log file for visualizer
-visualizer_zlevel                      6 # Compression level of the visualizer output log (0=no comp, 9=highest)
-trace_enabled                          0 # Turn on traces
-trace_components                    none # comma seperated list of traces to enable. Complete list found in trace_streams.tup. Default none
-trace_sampling_core                    0 # The core which is printed using CORE_DPRINTF. Default 0
-trace_sampling_memory_partition                   -1 # The memory partition which is printed using MEMPART_DPRINTF. Default -1 (i.e. all)
-enable_ptx_file_line_stats                    1 # Turn on PTX source line statistic profiling. (1 = On)
-ptx_line_stats_filename gpgpu_inst_stats.txt # Output file for PTX source line statistics.
-save_embedded_ptx                      0 # saves ptx files embedded in binary as <n>.ptx
-keep                                   0 # keep intermediate files created by GPGPU-Sim when interfacing with external programs
-gpgpu_ptx_save_converted_ptxplus                    0 # Saved converted ptxplus to a file
-ptx_opcode_latency_int         4,13,4,5,145 # Opcode latencies for integers <ADD,MAX,MUL,MAD,DIV>Default 1,1,19,25,145
-ptx_opcode_latency_fp          4,13,4,5,39 # Opcode latencies for single precision floating points <ADD,MAX,MUL,MAD,DIV>Default 1,1,1,1,30
-ptx_opcode_latency_dp         8,19,8,8,330 # Opcode latencies for double precision floating points <ADD,MAX,MUL,MAD,DIV>Default 8,8,8,8,335
-ptx_opcode_initiation_int            1,2,2,1,8 # Opcode initiation intervals for integers <ADD,MAX,MUL,MAD,DIV>Default 1,1,4,4,32
-ptx_opcode_initiation_fp            1,2,1,1,4 # Opcode initiation intervals for single precision floating points <ADD,MAX,MUL,MAD,DIV>Default 1,1,1,1,5
-ptx_opcode_initiation_dp         8,16,8,8,130 # Opcode initiation intervals for double precision floating points <ADD,MAX,MUL,MAD,DIV>Default 8,8,8,8,130
DRAM Timing Options:
nbk                                    16 # number of banks
CCD                                     2 # column to column delay
RRD                                     6 # minimal delay between activation of rows in different banks
RCD                                    12 # row to column delay
RAS                                    28 # time needed to activate row
RP                                     12 # time needed to precharge (deactivate) row
RC                                     40 # row cycle time
CDLR                                    5 # switching from write to read (changes tWTR)
WR                                     12 # last data-in to row precharge
CL                                     12 # CAS latency
WL                                      4 # Write latency
nbkgrp                                  4 # number of bank groups
CCDL                                    3 # column to column delay between accesses to different bank groups
RTPL                                    2 # read to precharge delay between accesses to different bank groups
Total number of memory sub partition = 12
addr_dec_mask[CHIP]  = 0000000000000000 	high:64 low:0
addr_dec_mask[BK]    = 000000000000e100 	high:16 low:8
addr_dec_mask[ROW]   = 000000000fff0000 	high:28 low:16
addr_dec_mask[COL]   = 0000000000001eff 	high:13 low:0
addr_dec_mask[BURST] = 000000000000003f 	high:6 low:0
sub_partition_id_mask = 0000000000000100
GPGPU-Sim uArch: clock freqs: 700000000.000000:700000000.000000:700000000.000000:924000000.000000
GPGPU-Sim uArch: clock periods: 0.00000000142857142857:0.00000000142857142857:0.00000000142857142857:0.00000000108225108225
*** Initializing Memory Statistics ***
GPGPU-Sim uArch: interconnect node map (shaderID+MemID to icntID)
GPGPU-Sim uArch: Memory nodes ID start from index: 15
GPGPU-Sim uArch:    0   1   2   3   4
GPGPU-Sim uArch:    5   6   7   8   9
GPGPU-Sim uArch:   10  11  12  13  14
GPGPU-Sim uArch:   15  16  17  18  19
GPGPU-Sim uArch:   20  21  22  23  24
GPGPU-Sim uArch:   25  26
GPGPU-Sim uArch: interconnect node reverse map (icntID to shaderID+MemID)
GPGPU-Sim uArch: Memory nodes start from ID: 15
GPGPU-Sim uArch:    0   1   2   3   4
GPGPU-Sim uArch:    5   6   7   8   9
GPGPU-Sim uArch:   10  11  12  13  14
GPGPU-Sim uArch:   15  16  17  18  19
GPGPU-Sim uArch:   20  21  22  23  24
GPGPU-Sim uArch:   25  26
36731beff5187ff21689d20a58a6b791  /home/kishore/project_source/gpu_class_proj/gpgpusim-benchmarks-master/bin/release/LIB
GPGPU-Sim uArch: performance model initialization complete.
GPGPU-Sim PTX: __cudaRegisterFatBinary, fat_cubin_handle = 1, filename=libor.cu
self exe links to: /home/kishore/project_source/gpu_class_proj/gpgpusim-benchmarks-master/bin/release/LIB
Running md5sum using "md5sum /home/kishore/project_source/gpu_class_proj/gpgpusim-benchmarks-master/bin/release/LIB "
Running cuobjdump using "$CUDA_INSTALL_PATH/bin/cuobjdump -ptx -elf -sass /home/kishore/project_source/gpu_class_proj/gpgpusim-benchmarks-master/bin/release/LIB > _cuobjdump_complete_output_rYrXNq"
Parsing file _cuobjdump_complete_output_rYrXNq
######### cuobjdump parser ########
## Adding new section PTX
Adding ptx filename: _cuobjdump_1.ptx
Adding arch: sm_10
Adding identifier: libor.cu
## Adding new section ELF
Adding arch: sm_10
Adding identifier: libor.cu
## Adding new section ELF
Adding arch: sm_20
Adding identifier: libor.cu
## Adding new section PTX
Adding ptx filename: _cuobjdump_2.ptx
Adding arch: sm_20
Adding identifier: libor.cu
Done parsing!!!
GPGPU-Sim PTX: __cudaRegisterFunction _Z29Pathcalc_Portfolio_KernelGPU2Pf : hostFun 0x0x403b30, fat_cubin_handle = 1
GPGPU-Sim PTX: allocating stack frame region for .param "__cudaparmf1__Z9path_calcPfS_" from 0x0 to 0x8
GPGPU-Sim PTX: allocating stack frame region for .param "__cudaparmf2__Z9path_calcPfS_" from 0x8 to 0x10
GPGPU-Sim PTX: allocating stack frame region for .param "__cudaparmf1__Z12path_calc_b1PfS_S_" from 0x0 to 0x8
GPGPU-Sim PTX: allocating stack frame region for .param "__cudaparmf2__Z12path_calc_b1PfS_S_" from 0x8 to 0x10
GPGPU-Sim PTX: allocating stack frame region for .param "__cudaparmf3__Z12path_calc_b1PfS_S_" from 0x10 to 0x18
GPGPU-Sim PTX: allocating stack frame region for .param "__cudaparmf1__Z12path_calc_b2PfS_S_" from 0x0 to 0x8
GPGPU-Sim PTX: allocating stack frame region for .param "__cudaparmf2__Z12path_calc_b2PfS_S_" from 0x8 to 0x10
GPGPU-Sim PTX: allocating stack frame region for .param "__cudaparmf3__Z12path_calc_b2PfS_S_" from 0x10 to 0x18
GPGPU-Sim PTX: allocating stack frame region for .param "__cudaretf__Z11portfolio_bPfS_" from 0x0 to 0x4
GPGPU-Sim PTX: allocating stack frame region for .param "__cudaparmf1__Z11portfolio_bPfS_" from 0x4 to 0xc
GPGPU-Sim PTX: allocating stack frame region for .param "__cudaparmf2__Z11portfolio_bPfS_" from 0xc to 0x14
GPGPU-Sim PTX: allocating stack frame region for .param "__cudaretf__Z9portfolioPf" from 0x0 to 0x4
GPGPU-Sim PTX: allocating stack frame region for .param "__cudaparmf1__Z9portfolioPf" from 0x4 to 0xc
GPGPU-Sim PTX: allocating constant region for "N" from 0x100 to 0x104 (global memory space) 1
GPGPU-Sim PTX: allocating constant region for "Nmat" from 0x104 to 0x108 (global memory space) 2
GPGPU-Sim PTX: allocating constant region for "delta" from 0x108 to 0x10c (global memory space) 3
GPGPU-Sim PTX: allocating constant region for "lambda" from 0x180 to 0x2c0 (global memory space) 4
GPGPU-Sim PTX: instruction assembly for function '_Z9path_calcPfS_'...   done.
GPGPU-Sim PTX: finding reconvergence points for '_Z9path_calcPfS_'...
GPGPU-Sim PTX: Finding dominators for '_Z9path_calcPfS_'...
GPGPU-Sim PTX: Finding immediate dominators for '_Z9path_calcPfS_'...
GPGPU-Sim PTX: Finding postdominators for '_Z9path_calcPfS_'...
GPGPU-Sim PTX: Finding immediate postdominators for '_Z9path_calcPfS_'...
GPGPU-Sim PTX: pre-decoding instructions for '_Z9path_calcPfS_'...
GPGPU-Sim PTX: reconvergence points for _Z9path_calcPfS_...
GPGPU-Sim PTX:  1 (potential) branch divergence @  PC=0x038 (_1.ptx:81) @%p1 bra $Lt_0_2306;
GPGPU-Sim PTX:    immediate post dominator      @  PC=0x218 (_1.ptx:153) ret;
GPGPU-Sim PTX:  2 (potential) branch divergence @  PC=0x0a8 (_1.ptx:99) @%p2 bra $Lt_0_3074;
GPGPU-Sim PTX:    immediate post dominator      @  PC=0x1f8 (_1.ptx:147) mov.s32 %r5, %r7;
GPGPU-Sim PTX:  3 (potential) branch divergence @  PC=0x1f0 (_1.ptx:145) @%p3 bra $Lt_0_3586;
GPGPU-Sim PTX:    immediate post dominator      @  PC=0x1f8 (_1.ptx:147) mov.s32 %r5, %r7;
GPGPU-Sim PTX:  4 (potential) branch divergence @  PC=0x210 (_1.ptx:150) @%p4 bra $Lt_0_2818;
GPGPU-Sim PTX:    immediate post dominator      @  PC=0x218 (_1.ptx:153) ret;
GPGPU-Sim PTX: ... end of reconvergence points for _Z9path_calcPfS_
GPGPU-Sim PTX: ... done pre-decoding instructions for '_Z9path_calcPfS_'.
GPGPU-Sim PTX: instruction assembly for function '_Z12path_calc_b1PfS_S_'...   done.
GPGPU-Sim PTX: finding reconvergence points for '_Z12path_calc_b1PfS_S_'...
GPGPU-Sim PTX: Finding dominators for '_Z12path_calc_b1PfS_S_'...
GPGPU-Sim PTX: Finding immediate dominators for '_Z12path_calc_b1PfS_S_'...
GPGPU-Sim PTX: Finding postdominators for '_Z12path_calc_b1PfS_S_'...
GPGPU-Sim PTX: Finding immediate postdominators for '_Z12path_calc_b1PfS_S_'...
GPGPU-Sim PTX: pre-decoding instructions for '_Z12path_calc_b1PfS_S_'...
GPGPU-Sim PTX: reconvergence points for _Z12path_calc_b1PfS_S_...
GPGPU-Sim PTX:  1 (potential) branch divergence @  PC=0x268 (_1.ptx:175) @%p1 bra $Lt_1_3330;
GPGPU-Sim PTX:    immediate post dominator      @  PC=0x2d0 (_1.ptx:192) ld.const.s32 %r6, [Nmat];
GPGPU-Sim PTX:  2 (potential) branch divergence @  PC=0x2c8 (_1.ptx:190) @%p2 bra $Lt_1_3842;
GPGPU-Sim PTX:    immediate post dominator      @  PC=0x2d0 (_1.ptx:192) ld.const.s32 %r6, [Nmat];
GPGPU-Sim PTX:  3 (potential) branch divergence @  PC=0x2e8 (_1.ptx:195) @%p3 bra $Lt_1_4354;
GPGPU-Sim PTX:    immediate post dominator      @  PC=0x4f8 (_1.ptx:274) ret;
GPGPU-Sim PTX:  4 (potential) branch divergence @  PC=0x350 (_1.ptx:212) @%p4 bra $Lt_1_5122;
GPGPU-Sim PTX:    immediate post dominator      @  PC=0x4d8 (_1.ptx:268) mov.s32 %r9, %r11;
GPGPU-Sim PTX:  5 (potential) branch divergence @  PC=0x4d0 (_1.ptx:266) @%p5 bra $Lt_1_5634;
GPGPU-Sim PTX:    immediate post dominator      @  PC=0x4d8 (_1.ptx:268) mov.s32 %r9, %r11;
GPGPU-Sim PTX:  6 (potential) branch divergence @  PC=0x4f0 (_1.ptx:271) @%p6 bra $Lt_1_4866;
GPGPU-Sim PTX:    immediate post dominator      @  PC=0x4f8 (_1.ptx:274) ret;
GPGPU-Sim PTX: ... end of reconvergence points for _Z12path_calc_b1PfS_S_
GPGPU-Sim PTX: ... done pre-decoding instructions for '_Z12path_calc_b1PfS_S_'.
GPGPU-Sim PTX: instruction assembly for function '_Z12path_calc_b2PfS_S_'...   done.
GPGPU-Sim PTX: finding reconvergence points for '_Z12path_calc_b2PfS_S_'...
GPGPU-Sim PTX: Finding dominators for '_Z12path_calc_b2PfS_S_'...
GPGPU-Sim PTX: Finding immediate dominators for '_Z12path_calc_b2PfS_S_'...
GPGPU-Sim PTX: Finding postdominators for '_Z12path_calc_b2PfS_S_'...
GPGPU-Sim PTX: Finding immediate postdominators for '_Z12path_calc_b2PfS_S_'...
GPGPU-Sim PTX: pre-decoding instructions for '_Z12path_calc_b2PfS_S_'...
GPGPU-Sim PTX: reconvergence points for _Z12path_calc_b2PfS_S_...
GPGPU-Sim PTX:  1 (potential) branch divergence @  PC=0x548 (_1.ptx:297) @%p1 bra $Lt_2_2306;
GPGPU-Sim PTX:    immediate post dominator      @  PC=0x730 (_1.ptx:368) ret;
GPGPU-Sim PTX:  2 (potential) branch divergence @  PC=0x580 (_1.ptx:306) @%p2 bra $Lt_2_3074;
GPGPU-Sim PTX:    immediate post dominator      @  PC=0x710 (_1.ptx:362) sub.s32 %r3, %r3, 1;
GPGPU-Sim PTX:  3 (potential) branch divergence @  PC=0x708 (_1.ptx:360) @%p3 bra $Lt_2_3586;
GPGPU-Sim PTX:    immediate post dominator      @  PC=0x710 (_1.ptx:362) sub.s32 %r3, %r3, 1;
GPGPU-Sim PTX:  4 (potential) branch divergence @  PC=0x728 (_1.ptx:365) @%p4 bra $Lt_2_2818;
GPGPU-Sim PTX:    immediate post dominator      @  PC=0x730 (_1.ptx:368) ret;
GPGPU-Sim PTX: ... end of reconvergence points for _Z12path_calc_b2PfS_S_
GPGPU-Sim PTX: ... done pre-decoding instructions for '_Z12path_calc_b2PfS_S_'.
GPGPU-Sim PTX: allocating constant region for "Nopt" from 0x2c0 to 0x2c4 (global memory space) 5
GPGPU-Sim PTX: allocating constant region for "maturities" from 0x300 to 0x33c (global memory space) 6
GPGPU-Sim PTX: allocating constant region for "swaprates" from 0x380 to 0x3bc (global memory space) 7
GPGPU-Sim PTX: allocating stack frame region for .local "__cuda___cuda_local_var_34164_9_non_const_B_16440" from 0x80 to 0x120
GPGPU-Sim PTX: allocating stack frame region for .local "__cuda___cuda_local_var_34164_16_non_const_S_176600" from 0x180 to 0x220
GPGPU-Sim PTX: allocating stack frame region for .local "__cuda___cuda_local_var_34164_23_non_const_B_b_336760" from 0x280 to 0x320
GPGPU-Sim PTX: allocating stack frame region for .local "__cuda___cuda_local_var_34164_32_non_const_S_b_496920" from 0x380 to 0x420
GPGPU-Sim PTX: instruction assembly for function '_Z11portfolio_bPfS_'...   done.
GPGPU-Sim PTX: finding reconvergence points for '_Z11portfolio_bPfS_'...
GPGPU-Sim PTX: Finding dominators for '_Z11portfolio_bPfS_'...
GPGPU-Sim PTX: Finding immediate dominators for '_Z11portfolio_bPfS_'...
GPGPU-Sim PTX: Finding postdominators for '_Z11portfolio_bPfS_'...
GPGPU-Sim PTX: Finding immediate postdominators for '_Z11portfolio_bPfS_'...
GPGPU-Sim PTX: pre-decoding instructions for '_Z11portfolio_bPfS_'...
GPGPU-Sim PTX: reconvergence points for _Z11portfolio_bPfS_...
GPGPU-Sim PTX:  1 (potential) branch divergence @  PC=0x780 (_1.ptx:397) @!%p1 bra $Lt_3_8962;
GPGPU-Sim PTX:    immediate post dominator      @  PC=0x868 (_1.ptx:433) @!%p1 bra $Lt_3_9986;
GPGPU-Sim PTX:  2 (potential) branch divergence @  PC=0x860 (_1.ptx:431) @%p2 bra $Lt_3_9474;
GPGPU-Sim PTX:    immediate post dominator      @  PC=0x868 (_1.ptx:433) @!%p1 bra $Lt_3_9986;
GPGPU-Sim PTX:  3 (potential) branch divergence @  PC=0x868 (_1.ptx:433) @!%p1 bra $Lt_3_9986;
GPGPU-Sim PTX:    immediate post dominator      @  PC=0x8e0 (_1.ptx:453) ld.const.s32 %r11, [Nopt];
GPGPU-Sim PTX:  4 (potential) branch divergence @  PC=0x8d8 (_1.ptx:451) @%p3 bra $Lt_3_10498;
GPGPU-Sim PTX:    immediate post dominator      @  PC=0x8e0 (_1.ptx:453) ld.const.s32 %r11, [Nopt];
GPGPU-Sim PTX:  5 (potential) branch divergence @  PC=0x8f8 (_1.ptx:456) @%p4 bra $Lt_3_17666;
GPGPU-Sim PTX:    immediate post dominator      @  PC=0xa80 (_1.ptx:515) sub.s32 %r17, %r3, 1;
GPGPU-Sim PTX:  6 (potential) branch divergence @  PC=0x9c8 (_1.ptx:485) @!%p5 bra $Lt_3_11778;
GPGPU-Sim PTX:    immediate post dominator      @  PC=0xa30 (_1.ptx:502) add.s32 %r14, %r14, 1;
GPGPU-Sim PTX:  7 (potential) branch divergence @  PC=0xa50 (_1.ptx:506) @%p6 bra $Lt_3_11522;
GPGPU-Sim PTX:    immediate post dominator      @  PC=0xa58 (_1.ptx:507) bra.uni $Lt_3_11010;
GPGPU-Sim PTX:  8 (potential) branch divergence @  PC=0xa58 (_1.ptx:507) bra.uni $Lt_3_11010;
GPGPU-Sim PTX:    immediate post dominator      @  PC=0xa80 (_1.ptx:515) sub.s32 %r17, %r3, 1;
GPGPU-Sim PTX:  9 (potential) branch divergence @  PC=0xa98 (_1.ptx:518) @%p7 bra $Lt_3_12546;
GPGPU-Sim PTX:    immediate post dominator      @  PC=0xc60 (_1.ptx:583) mov.s32 %r22, 0;
GPGPU-Sim PTX: 10 (potential) branch divergence @  PC=0xba0 (_1.ptx:555) @%p8 bra $Lt_3_13314;
GPGPU-Sim PTX:    immediate post dominator      @  PC=0xc20 (_1.ptx:574) sub.s32 %r6, %r6, 1;
GPGPU-Sim PTX: 11 (potential) branch divergence @  PC=0xc58 (_1.ptx:581) @%p9 bra $Lt_3_13058;
GPGPU-Sim PTX:    immediate post dominator      @  PC=0xc60 (_1.ptx:583) mov.s32 %r22, 0;
GPGPU-Sim PTX: 12 (potential) branch divergence @  PC=0xc70 (_1.ptx:585) @!%p10 bra $Lt_3_18178;
GPGPU-Sim PTX:    immediate post dominator      @  PC=0xd18 (_1.ptx:612) mul.f32 %f10, %f10, %f3;
GPGPU-Sim PTX: 13 (potential) branch divergence @  PC=0xd00 (_1.ptx:606) @%p11 bra $Lt_3_14594;
GPGPU-Sim PTX:    immediate post dominator      @  PC=0xd08 (_1.ptx:607) bra.uni $Lt_3_14082;
GPGPU-Sim PTX: 14 (potential) branch divergence @  PC=0xd08 (_1.ptx:607) bra.uni $Lt_3_14082;
GPGPU-Sim PTX:    immediate post dominator      @  PC=0xd18 (_1.ptx:612) mul.f32 %f10, %f10, %f3;
GPGPU-Sim PTX: 15 (potential) branch divergence @  PC=0xd20 (_1.ptx:613) @!%p10 bra $Lt_3_15106;
GPGPU-Sim PTX:    immediate post dominator      @  PC=0xdd8 (_1.ptx:641) mov.s32 %r14, %r1;
GPGPU-Sim PTX: 16 (potential) branch divergence @  PC=0xdd0 (_1.ptx:638) @%p12 bra $Lt_3_15618;
GPGPU-Sim PTX:    immediate post dominator      @  PC=0xdd8 (_1.ptx:641) mov.s32 %r14, %r1;
GPGPU-Sim PTX: 17 (potential) branch divergence @  PC=0xde8 (_1.ptx:643) @%p13 bra $Lt_3_16130;
GPGPU-Sim PTX:    immediate post dominator      @  PC=0xe50 (_1.ptx:661) mov.f32 %f54, %f10;
GPGPU-Sim PTX: 18 (potential) branch divergence @  PC=0xe48 (_1.ptx:658) @%p14 bra $Lt_3_16642;
GPGPU-Sim PTX:    immediate post dominator      @  PC=0xe50 (_1.ptx:661) mov.f32 %f54, %f10;
GPGPU-Sim PTX: ... end of reconvergence points for _Z11portfolio_bPfS_
GPGPU-Sim PTX: ... done pre-decoding instructions for '_Z11portfolio_bPfS_'.
GPGPU-Sim PTX: allocating stack frame region for .local "__cuda___cuda_local_var_34227_27_non_const_B_01080" from 0x80 to 0x120
GPGPU-Sim PTX: allocating stack frame region for .local "__cuda___cuda_local_var_34227_34_non_const_S_1601240" from 0x180 to 0x220
GPGPU-Sim PTX: instruction assembly for function '_Z9portfolioPf'...   done.
GPGPU-Sim PTX: finding reconvergence points for '_Z9portfolioPf'...
GPGPU-Sim PTX: Finding dominators for '_Z9portfolioPf'...
GPGPU-Sim PTX: Finding immediate dominators for '_Z9portfolioPf'...
GPGPU-Sim PTX: Finding postdominators for '_Z9portfolioPf'...
GPGPU-Sim PTX: Finding immediate postdominators for '_Z9portfolioPf'...
GPGPU-Sim PTX: pre-decoding instructions for '_Z9portfolioPf'...
GPGPU-Sim PTX: reconvergence points for _Z9portfolioPf...
GPGPU-Sim PTX:  1 (potential) branch divergence @  PC=0xe90 (_1.ptx:684) @%p1 bra $Lt_4_4098;
GPGPU-Sim PTX:    immediate post dominator      @  PC=0xf90 (_1.ptx:723) cvta.local.u64 %rd3, __cuda___cuda_local_var_34227_27_non_const_B_01080;
GPGPU-Sim PTX:  2 (potential) branch divergence @  PC=0xf88 (_1.ptx:721) @%p2 bra $Lt_4_4610;
GPGPU-Sim PTX:    immediate post dominator      @  PC=0xf90 (_1.ptx:723) cvta.local.u64 %rd3, __cuda___cuda_local_var_34227_27_non_const_B_01080;
GPGPU-Sim PTX:  3 (potential) branch divergence @  PC=0xfb8 (_1.ptx:728) @%p3 bra $Lt_4_7426;
GPGPU-Sim PTX:    immediate post dominator      @  PC=0x10d0 (_1.ptx:769) mov.u32 %r13, 0;
GPGPU-Sim PTX:  4 (potential) branch divergence @  PC=0x10b8 (_1.ptx:764) @%p5 bra $Lt_4_5634;
GPGPU-Sim PTX:    immediate post dominator      @  PC=0x10c0 (_1.ptx:765) bra.uni $Lt_4_5122;
GPGPU-Sim PTX:  5 (potential) branch divergence @  PC=0x10c0 (_1.ptx:765) bra.uni $Lt_4_5122;
GPGPU-Sim PTX:    immediate post dominator      @  PC=0x10d0 (_1.ptx:769) mov.u32 %r13, 0;
GPGPU-Sim PTX:  6 (potential) branch divergence @  PC=0x10e0 (_1.ptx:771) @%p6 bra $Lt_4_7682;
GPGPU-Sim PTX:    immediate post dominator      @  PC=0x1188 (_1.ptx:798) mul.f32 %f16, %f6, %f3;
GPGPU-Sim PTX:  7 (potential) branch divergence @  PC=0x1170 (_1.ptx:792) @%p7 bra $Lt_4_6658;
GPGPU-Sim PTX:    immediate post dominator      @  PC=0x1178 (_1.ptx:793) bra.uni $Lt_4_6146;
GPGPU-Sim PTX:  8 (potential) branch divergence @  PC=0x1178 (_1.ptx:793) bra.uni $Lt_4_6146;
GPGPU-Sim PTX:    immediate post dominator      @  PC=0x1188 (_1.ptx:798) mul.f32 %f16, %f6, %f3;
GPGPU-Sim PTX: ... end of reconvergence points for _Z9portfolioPf
GPGPU-Sim PTX: ... done pre-decoding instructions for '_Z9portfolioPf'.
GPGPU-Sim PTX: allocating stack frame region for .local "__cuda___cuda_local_var_34164_32_non_const_S_b_161416" from 0x0 to 0xa0
GPGPU-Sim PTX: allocating stack frame region for .local "__cuda___cuda_local_var_34164_16_non_const_S_1761576" from 0x100 to 0x1a0
GPGPU-Sim PTX: allocating stack frame region for .local "__cuda___cuda_local_var_34265_16_non_const_L2_3361736" from 0x200 to 0x3540
GPGPU-Sim PTX: allocating stack frame region for .local "__cuda___cuda_local_var_34164_23_non_const_B_b_1345614856" from 0x3580 to 0x3620
GPGPU-Sim PTX: allocating stack frame region for .local "__cuda___cuda_local_var_34164_9_non_const_B_1361615016" from 0x3680 to 0x3720
GPGPU-Sim PTX: allocating stack frame region for .local "__cuda___cuda_local_var_34265_26_non_const_z_1377615176" from 0x3780 to 0x38c0
GPGPU-Sim PTX: allocating stack frame region for .local "__cuda___cuda_local_var_34265_9_non_const_L_1409615496" from 0x3900 to 0x3a40
GPGPU-Sim PTX: instruction assembly for function '_Z28Pathcalc_Portfolio_KernelGPUPfS_'...   done.
GPGPU-Sim PTX: finding reconvergence points for '_Z28Pathcalc_Portfolio_KernelGPUPfS_'...
GPGPU-Sim PTX: Finding dominators for '_Z28Pathcalc_Portfolio_KernelGPUPfS_'...
GPGPU-Sim PTX: Finding immediate dominators for '_Z28Pathcalc_Portfolio_KernelGPUPfS_'...
GPGPU-Sim PTX: Finding postdominators for '_Z28Pathcalc_Portfolio_KernelGPUPfS_'...
GPGPU-Sim PTX: Finding immediate postdominators for '_Z28Pathcalc_Portfolio_KernelGPUPfS_'...
GPGPU-Sim PTX: pre-decoding instructions for '_Z28Pathcalc_Portfolio_KernelGPUPfS_'...
GPGPU-Sim PTX: reconvergence points for _Z28Pathcalc_Portfolio_KernelGPUPfS_...
GPGPU-Sim PTX:  1 (potential) branch divergence @  PC=0x11e0 (_1.ptx:831) @%p1 bra $Lt_5_16130;
GPGPU-Sim PTX:    immediate post dominator      @  PC=0x1e48 (_1.ptx:1310) exit;
GPGPU-Sim PTX:  2 (potential) branch divergence @  PC=0x1320 (_1.ptx:873) @!%p2 bra $Lt_5_17922;
GPGPU-Sim PTX:    immediate post dominator      @  PC=0x1400 (_1.ptx:911) @!%p3 bra $Lt_5_18946;
GPGPU-Sim PTX:  3 (potential) branch divergence @  PC=0x1390 (_1.ptx:891) @%p9 bra $Lt_5_17410;
GPGPU-Sim PTX:    immediate post dominator      @  PC=0x1398 (_1.ptx:894) @!%p2 bra $Lt_5_17922;
GPGPU-Sim PTX:  4 (potential) branch divergence @  PC=0x1398 (_1.ptx:894) @!%p2 bra $Lt_5_17922;
GPGPU-Sim PTX:    immediate post dominator      @  PC=0x1400 (_1.ptx:911) @!%p3 bra $Lt_5_18946;
GPGPU-Sim PTX:  5 (potential) branch divergence @  PC=0x13f8 (_1.ptx:909) @%p10 bra $Lt_5_18434;
GPGPU-Sim PTX:    immediate post dominator      @  PC=0x1400 (_1.ptx:911) @!%p3 bra $Lt_5_18946;
GPGPU-Sim PTX:  6 (potential) branch divergence @  PC=0x1400 (_1.ptx:911) @!%p3 bra $Lt_5_18946;
GPGPU-Sim PTX:    immediate post dominator      @  PC=0x1610 (_1.ptx:989) @!%p6 bra $Lt_5_22018;
GPGPU-Sim PTX:  7 (potential) branch divergence @  PC=0x1438 (_1.ptx:921) @%p11 bra $Lt_5_19714;
GPGPU-Sim PTX:    immediate post dominator      @  PC=0x15f8 (_1.ptx:984) mov.s32 %r29, %r31;
GPGPU-Sim PTX:  8 (potential) branch divergence @  PC=0x15f0 (_1.ptx:982) @%p12 bra $Lt_5_20226;
GPGPU-Sim PTX:    immediate post dominator      @  PC=0x15f8 (_1.ptx:984) mov.s32 %r29, %r31;
GPGPU-Sim PTX:  9 (potential) branch divergence @  PC=0x1608 (_1.ptx:986) @%p13 bra $Lt_5_19458;
GPGPU-Sim PTX:    immediate post dominator      @  PC=0x1610 (_1.ptx:989) @!%p6 bra $Lt_5_22018;
GPGPU-Sim PTX: 10 (potential) branch divergence @  PC=0x1610 (_1.ptx:989) @!%p6 bra $Lt_5_22018;
GPGPU-Sim PTX:    immediate post dominator      @  PC=0x1770 (_1.ptx:1045) @!%p4 bra $Lt_5_33282;
GPGPU-Sim PTX: 11 (potential) branch divergence @  PC=0x16f0 (_1.ptx:1023) @%p14 bra $Lt_5_21506;
GPGPU-Sim PTX:    immediate post dominator      @  PC=0x16f8 (_1.ptx:1025) @!%p6 bra $Lt_5_22018;
GPGPU-Sim PTX: 12 (potential) branch divergence @  PC=0x16f8 (_1.ptx:1025) @!%p6 bra $Lt_5_22018;
GPGPU-Sim PTX:    immediate post dominator      @  PC=0x1770 (_1.ptx:1045) @!%p4 bra $Lt_5_33282;
GPGPU-Sim PTX: 13 (potential) branch divergence @  PC=0x1768 (_1.ptx:1043) @%p15 bra $Lt_5_22530;
GPGPU-Sim PTX:    immediate post dominator      @  PC=0x1770 (_1.ptx:1045) @!%p4 bra $Lt_5_33282;
GPGPU-Sim PTX: 14 (potential) branch divergence @  PC=0x1770 (_1.ptx:1045) @!%p4 bra $Lt_5_33282;
GPGPU-Sim PTX:    immediate post dominator      @  PC=0x18c0 (_1.ptx:1096) @!%p8 bra $Lt_5_24578;
GPGPU-Sim PTX: 15 (potential) branch divergence @  PC=0x1820 (_1.ptx:1070) @!%p16 bra $Lt_5_23810;
GPGPU-Sim PTX:    immediate post dominator      @  PC=0x1888 (_1.ptx:1087) add.s32 %r46, %r46, 1;
GPGPU-Sim PTX: 16 (potential) branch divergence @  PC=0x18a8 (_1.ptx:1091) @%p17 bra $Lt_5_23554;
GPGPU-Sim PTX:    immediate post dominator      @  PC=0x18b0 (_1.ptx:1092) bra.uni $Lt_5_23042;
GPGPU-Sim PTX: 17 (potential) branch divergence @  PC=0x18b0 (_1.ptx:1092) bra.uni $Lt_5_23042;
GPGPU-Sim PTX:    immediate post dominator      @  PC=0x18c0 (_1.ptx:1096) @!%p8 bra $Lt_5_24578;
GPGPU-Sim PTX: 18 (potential) branch divergence @  PC=0x18c0 (_1.ptx:1096) @!%p8 bra $Lt_5_24578;
GPGPU-Sim PTX:    immediate post dominator      @  PC=0x1a58 (_1.ptx:1155) @!%p3 bra $Lt_5_33794;
GPGPU-Sim PTX: 19 (potential) branch divergence @  PC=0x19b8 (_1.ptx:1131) @%p18 bra $Lt_5_25346;
GPGPU-Sim PTX:    immediate post dominator      @  PC=0x1a20 (_1.ptx:1147) sub.s32 %r40, %r40, 1;
GPGPU-Sim PTX: 20 (potential) branch divergence @  PC=0x1a50 (_1.ptx:1153) @%p19 bra $Lt_5_25090;
GPGPU-Sim PTX:    immediate post dominator      @  PC=0x1a58 (_1.ptx:1155) @!%p3 bra $Lt_5_33794;
GPGPU-Sim PTX: 21 (potential) branch divergence @  PC=0x1a58 (_1.ptx:1155) @!%p3 bra $Lt_5_33794;
GPGPU-Sim PTX:    immediate post dominator      @  PC=0x1b00 (_1.ptx:1182) mul.f32 %f30, %f30, %f24;
GPGPU-Sim PTX: 22 (potential) branch divergence @  PC=0x1ae8 (_1.ptx:1176) @%p20 bra $Lt_5_26626;
GPGPU-Sim PTX:    immediate post dominator      @  PC=0x1af0 (_1.ptx:1177) bra.uni $Lt_5_26114;
GPGPU-Sim PTX: 23 (potential) branch divergence @  PC=0x1af0 (_1.ptx:1177) bra.uni $Lt_5_26114;
GPGPU-Sim PTX:    immediate post dominator      @  PC=0x1b00 (_1.ptx:1182) mul.f32 %f30, %f30, %f24;
GPGPU-Sim PTX: 24 (potential) branch divergence @  PC=0x1b08 (_1.ptx:1183) @!%p3 bra $Lt_5_27138;
GPGPU-Sim PTX:    immediate post dominator      @  PC=0x1bb0 (_1.ptx:1209) mov.s32 %r46, %r10;
GPGPU-Sim PTX: 25 (potential) branch divergence @  PC=0x1ba8 (_1.ptx:1206) @%p21 bra $Lt_5_27650;
GPGPU-Sim PTX:    immediate post dominator      @  PC=0x1bb0 (_1.ptx:1209) mov.s32 %r46, %r10;
GPGPU-Sim PTX: 26 (potential) branch divergence @  PC=0x1bb8 (_1.ptx:1210) @!%p5 bra $Lt_5_28162;
GPGPU-Sim PTX:    immediate post dominator      @  PC=0x1c20 (_1.ptx:1228) st.global.f32 [%rd5+0], %f30;
GPGPU-Sim PTX: 27 (potential) branch divergence @  PC=0x1c18 (_1.ptx:1225) @%p22 bra $Lt_5_28674;
GPGPU-Sim PTX:    immediate post dominator      @  PC=0x1c20 (_1.ptx:1228) st.global.f32 [%rd5+0], %f30;
GPGPU-Sim PTX: 28 (potential) branch divergence @  PC=0x1c30 (_1.ptx:1231) @!%p7 bra $Lt_5_29186;
GPGPU-Sim PTX:    immediate post dominator      @  PC=0x1e08 (_1.ptx:1300) ld.local.f32 %f85, [__cuda___cuda_local_var_34265_9_non_const_L_1409615496+316];
GPGPU-Sim PTX: 29 (potential) branch divergence @  PC=0x1c58 (_1.ptx:1238) @%p23 bra $Lt_5_29954;
GPGPU-Sim PTX:    immediate post dominator      @  PC=0x1de8 (_1.ptx:1294) sub.s32 %r57, %r57, 1;
GPGPU-Sim PTX: 30 (potential) branch divergence @  PC=0x1de0 (_1.ptx:1292) @%p24 bra $Lt_5_30466;
GPGPU-Sim PTX:    immediate post dominator      @  PC=0x1de8 (_1.ptx:1294) sub.s32 %r57, %r57, 1;
GPGPU-Sim PTX: 31 (potential) branch divergence @  PC=0x1e00 (_1.ptx:1297) @%p25 bra $Lt_5_29698;
GPGPU-Sim PTX:    immediate post dominator      @  PC=0x1e08 (_1.ptx:1300) ld.local.f32 %f85, [__cuda___cuda_local_var_34265_9_non_const_L_1409615496+316];
GPGPU-Sim PTX: 32 (potential) branch divergence @  PC=0x1e40 (_1.ptx:1307) @%p26 bra $Lt_5_16642;
GPGPU-Sim PTX:    immediate post dominator      @  PC=0x1e48 (_1.ptx:1310) exit;
GPGPU-Sim PTX: ... end of reconvergence points for _Z28Pathcalc_Portfolio_KernelGPUPfS_
GPGPU-Sim PTX: ... done pre-decoding instructions for '_Z28Pathcalc_Portfolio_KernelGPUPfS_'.
GPGPU-Sim PTX: allocating stack frame region for .local "__cuda___cuda_local_var_34227_27_non_const_B_1615824" from 0x0 to 0xa0
GPGPU-Sim PTX: allocating stack frame region for .local "__cuda___cuda_local_var_34291_9_non_const_L_17615984" from 0x100 to 0x240
GPGPU-Sim PTX: allocating stack frame region for .local "__cuda___cuda_local_var_34227_34_non_const_S_49616304" from 0x280 to 0x320
GPGPU-Sim PTX: allocating stack frame region for .local "__cuda___cuda_local_var_34291_16_non_const_z_65616464" from 0x380 to 0x4c0
GPGPU-Sim PTX: instruction assembly for function '_Z29Pathcalc_Portfolio_KernelGPU2Pf'...   done.
GPGPU-Sim PTX: finding reconvergence points for '_Z29Pathcalc_Portfolio_KernelGPU2Pf'...
GPGPU-Sim PTX: Finding dominators for '_Z29Pathcalc_Portfolio_KernelGPU2Pf'...
GPGPU-Sim PTX: Finding immediate dominators for '_Z29Pathcalc_Portfolio_KernelGPU2Pf'...
GPGPU-Sim PTX: Finding postdominators for '_Z29Pathcalc_Portfolio_KernelGPU2Pf'...
GPGPU-Sim PTX: Finding immediate postdominators for '_Z29Pathcalc_Portfolio_KernelGPU2Pf'...
GPGPU-Sim PTX: pre-decoding instructions for '_Z29Pathcalc_Portfolio_KernelGPU2Pf'...
GPGPU-Sim PTX: reconvergence points for _Z29Pathcalc_Portfolio_KernelGPU2Pf...
GPGPU-Sim PTX:  1 (potential) branch divergence @  PC=0x1e90 (_1.ptx:1337) @%p1 bra $Lt_6_8194;
GPGPU-Sim PTX:    immediate post dominator      @  PC=0x2498 (_1.ptx:1571) exit;
GPGPU-Sim PTX:  2 (potential) branch divergence @  PC=0x1f60 (_1.ptx:1365) @!%p2 bra $Lt_6_8962;
GPGPU-Sim PTX:    immediate post dominator      @  PC=0x1fd8 (_1.ptx:1386) @!%p3 bra $Lt_6_9986;
GPGPU-Sim PTX:  3 (potential) branch divergence @  PC=0x1fd0 (_1.ptx:1383) @%p6 bra $Lt_6_9474;
GPGPU-Sim PTX:    immediate post dominator      @  PC=0x1fd8 (_1.ptx:1386) @!%p3 bra $Lt_6_9986;
GPGPU-Sim PTX:  4 (potential) branch divergence @  PC=0x1fd8 (_1.ptx:1386) @!%p3 bra $Lt_6_9986;
GPGPU-Sim PTX:    immediate post dominator      @  PC=0x21b0 (_1.ptx:1456) @!%p4 bra $Lt_6_12034;
GPGPU-Sim PTX:  5 (potential) branch divergence @  PC=0x2010 (_1.ptx:1396) @%p7 bra $Lt_6_10754;
GPGPU-Sim PTX:    immediate post dominator      @  PC=0x2198 (_1.ptx:1451) mov.s32 %r20, %r22;
GPGPU-Sim PTX:  6 (potential) branch divergence @  PC=0x2190 (_1.ptx:1449) @%p8 bra $Lt_6_11266;
GPGPU-Sim PTX:    immediate post dominator      @  PC=0x2198 (_1.ptx:1451) mov.s32 %r20, %r22;
GPGPU-Sim PTX:  7 (potential) branch divergence @  PC=0x21a8 (_1.ptx:1453) @%p9 bra $Lt_6_10498;
GPGPU-Sim PTX:    immediate post dominator      @  PC=0x21b0 (_1.ptx:1456) @!%p4 bra $Lt_6_12034;
GPGPU-Sim PTX:  8 (potential) branch divergence @  PC=0x21b0 (_1.ptx:1456) @!%p4 bra $Lt_6_12034;
GPGPU-Sim PTX:    immediate post dominator      @  PC=0x22a0 (_1.ptx:1493) @!%p5 bra $Lt_6_16642;
GPGPU-Sim PTX:  9 (potential) branch divergence @  PC=0x2298 (_1.ptx:1491) @%p10 bra $Lt_6_12546;
GPGPU-Sim PTX:    immediate post dominator      @  PC=0x22a0 (_1.ptx:1493) @!%p5 bra $Lt_6_16642;
GPGPU-Sim PTX: 10 (potential) branch divergence @  PC=0x22a0 (_1.ptx:1493) @!%p5 bra $Lt_6_16642;
GPGPU-Sim PTX:    immediate post dominator      @  PC=0x23b8 (_1.ptx:1534) @!%p3 bra $Lt_6_16898;
GPGPU-Sim PTX: 11 (potential) branch divergence @  PC=0x23a0 (_1.ptx:1529) @%p12 bra $Lt_6_13570;
GPGPU-Sim PTX:    immediate post dominator      @  PC=0x23a8 (_1.ptx:1530) bra.uni $Lt_6_13058;
GPGPU-Sim PTX: 12 (potential) branch divergence @  PC=0x23a8 (_1.ptx:1530) bra.uni $Lt_6_13058;
GPGPU-Sim PTX:    immediate post dominator      @  PC=0x23b8 (_1.ptx:1534) @!%p3 bra $Lt_6_16898;
GPGPU-Sim PTX: 13 (potential) branch divergence @  PC=0x23b8 (_1.ptx:1534) @!%p3 bra $Lt_6_16898;
GPGPU-Sim PTX:    immediate post dominator      @  PC=0x2460 (_1.ptx:1561) mul.f32 %f25, %f25, %f22;
GPGPU-Sim PTX: 14 (potential) branch divergence @  PC=0x2448 (_1.ptx:1555) @%p13 bra $Lt_6_14594;
GPGPU-Sim PTX:    immediate post dominator      @  PC=0x2450 (_1.ptx:1556) bra.uni $Lt_6_14082;
GPGPU-Sim PTX: 15 (potential) branch divergence @  PC=0x2450 (_1.ptx:1556) bra.uni $Lt_6_14082;
GPGPU-Sim PTX:    immediate post dominator      @  PC=0x2460 (_1.ptx:1561) mul.f32 %f25, %f25, %f22;
GPGPU-Sim PTX: 16 (potential) branch divergence @  PC=0x2490 (_1.ptx:1568) @%p14 bra $Lt_6_8706;
GPGPU-Sim PTX:    immediate post dominator      @  PC=0x2498 (_1.ptx:1571) exit;
GPGPU-Sim PTX: ... end of reconvergence points for _Z29Pathcalc_Portfolio_KernelGPU2Pf
GPGPU-Sim PTX: ... done pre-decoding instructions for '_Z29Pathcalc_Portfolio_KernelGPU2Pf'.
GPGPU-Sim PTX: finished parsing EMBEDDED .ptx file _1.ptx
Adding _cuobjdump_2.ptx with cubin handle 1
GPGPU-Sim PTX: extracting embedded .ptx to temporary file "_ptx_eEdgsC"
Running: cat _ptx_eEdgsC | sed 's/.version 1.5/.version 1.4/' | sed 's/, texmode_independent//' | sed 's/\(\.extern \.const\[1\] .b8 \w\+\)\[\]/\1\[1\]/' | sed 's/const\[.\]/const\[0\]/g' > _ptx2_7ihC6N
GPGPU-Sim PTX: generating ptxinfo using "$CUDA_INSTALL_PATH/bin/ptxas --gpu-name=sm_20 -v _ptx2_7ihC6N --output-file  /dev/null 2> _ptx_eEdgsCinfo"
GPGPU-Sim PTX: Kernel '_Z29Pathcalc_Portfolio_KernelGPU2Pf' : regs=33, lmem=4, smem=0, cmem=508
GPGPU-Sim PTX: Kernel '_Z28Pathcalc_Portfolio_KernelGPUPfS_' : regs=41, lmem=4, smem=0, cmem=516
GPGPU-Sim PTX: removing ptxinfo using "rm -f _ptx_eEdgsC _ptx2_7ihC6N _ptx_eEdgsCinfo"
GPGPU-Sim PTX: loading globals with explicit initializers... 
GPGPU-Sim PTX: finished loading globals (0 bytes total).
GPGPU-Sim PTX: loading constants with explicit initializers...  done.
GPGPU-Sim PTX: __cudaRegisterFunction _Z28Pathcalc_Portfolio_KernelGPUPfS_ : hostFun 0x0x403ba0, fat_cubin_handle = 1
GPGPU-Sim PTX: __cudaRegisterVar: hostVar = 0x62d448; deviceAddress = N; deviceName = N
GPGPU-Sim PTX: __cudaRegisterVar: Registering const memory space of 4 bytes
GPGPU-Sim PTX registering constant N (4 bytes) to name mapping
GPGPU-Sim PTX: __cudaRegisterVar: hostVar = 0x62d44c; deviceAddress = Nmat; deviceName = Nmat
GPGPU-Sim PTX: __cudaRegisterVar: Registering const memory space of 4 bytes
GPGPU-Sim PTX registering constant Nmat (4 bytes) to name mapping
GPGPU-Sim PTX: __cudaRegisterVar: hostVar = 0x62d450; deviceAddress = Nopt; deviceName = Nopt
GPGPU-Sim PTX: __cudaRegisterVar: Registering const memory space of 4 bytes
GPGPU-Sim PTX registering constant Nopt (4 bytes) to name mapping
GPGPU-Sim PTX: __cudaRegisterVar: hostVar = 0x62d460; deviceAddress = maturities; deviceName = maturities
GPGPU-Sim PTX: __cudaRegisterVar: Registering const memory space of 60 bytes
GPGPU-Sim PTX registering constant maturities (60 bytes) to name mapping
GPGPU-Sim PTX: __cudaRegisterVar: hostVar = 0x62d49c; deviceAddress = delta; deviceName = delta
GPGPU-Sim PTX: __cudaRegisterVar: Registering const memory space of 4 bytes
GPGPU-Sim PTX registering constant delta (4 bytes) to name mapping
GPGPU-Sim PTX: __cudaRegisterVar: hostVar = 0x62d4a0; deviceAddress = swaprates; deviceName = swaprates
GPGPU-Sim PTX: __cudaRegisterVar: Registering const memory space of 60 bytes
GPGPU-Sim PTX registering constant swaprates (60 bytes) to name mapping
GPGPU-Sim PTX: __cudaRegisterVar: hostVar = 0x62d4e0; deviceAddress = lambda; deviceName = lambda
GPGPU-Sim PTX: __cudaRegisterVar: Registering const memory space of 320 bytes
GPGPU-Sim PTX registering constant lambda (320 bytes) to name mapping
GPGPU-Sim PTX: cudaMemcpyToSymbol: symbol = 0x62d448
GPGPU-Sim PTX: starting gpgpu_ptx_sim_memcpy_symbol with hostVar 0x0x62d448
GPGPU-Sim PTX: gpgpu_ptx_sim_memcpy_symbol: Found PTX symbol w/ hostVar=0x62d448
GPGPU-Sim PTX: gpgpu_ptx_sim_memcpy_symbol: copying const memory 4 bytes  to  symbol N+0 @0x100 ...
GPGPU-Sim PTX: cudaMemcpyToSymbol: symbol = 0x62d44c
GPGPU-Sim PTX: starting gpgpu_ptx_sim_memcpy_symbol with hostVar 0x0x62d44c
GPGPU-Sim PTX: gpgpu_ptx_sim_memcpy_symbol: Found PTX symbol w/ hostVar=0x62d44c
GPGPU-Sim PTX: gpgpu_ptx_sim_memcpy_symbol: copying const memory 4 bytes  to  symbol Nmat+0 @0x104 ...
GPGPU-Sim PTX: cudaMemcpyToSymbol: symbol = 0x62d450
GPGPU-Sim PTX: starting gpgpu_ptx_sim_memcpy_symbol with hostVar 0x0x62d450
GPGPU-Sim PTX: gpgpu_ptx_sim_memcpy_symbol: Found PTX symbol w/ hostVar=0x62d450
GPGPU-Sim PTX: gpgpu_ptx_sim_memcpy_symbol: copying const memory 4 bytes  to  symbol Nopt+0 @0x2c0 ...
GPGPU-Sim PTX: cudaMemcpyToSymbol: symbol = 0x62d49c
GPGPU-Sim PTX: starting gpgpu_ptx_sim_memcpy_symbol with hostVar 0x0x62d49c
GPGPU-Sim PTX: gpgpu_ptx_sim_memcpy_symbol: Found PTX symbol w/ hostVar=0x62d49c
GPGPU-Sim PTX: gpgpu_ptx_sim_memcpy_symbol: copying const memory 4 bytes  to  symbol delta+0 @0x108 ...
GPGPU-Sim PTX: cudaMemcpyToSymbol: symbol = 0x62d460
GPGPU-Sim PTX: starting gpgpu_ptx_sim_memcpy_symbol with hostVar 0x0x62d460
GPGPU-Sim PTX: gpgpu_ptx_sim_memcpy_symbol: Found PTX symbol w/ hostVar=0x62d460
GPGPU-Sim PTX: gpgpu_ptx_sim_memcpy_symbol: copying const memory 60 bytes  to  symbol maturities+0 @0x300 ...
GPGPU-Sim PTX: cudaMemcpyToSymbol: symbol = 0x62d4a0
GPGPU-Sim PTX: starting gpgpu_ptx_sim_memcpy_symbol with hostVar 0x0x62d4a0
GPGPU-Sim PTX: gpgpu_ptx_sim_memcpy_symbol: Found PTX symbol w/ hostVar=0x62d4a0
GPGPU-Sim PTX: gpgpu_ptx_sim_memcpy_symbol: copying const memory 60 bytes  to  symbol swaprates+0 @0x380 ...
GPGPU-Sim PTX: cudaMemcpyToSymbol: symbol = 0x62d4e0
GPGPU-Sim PTX: starting gpgpu_ptx_sim_memcpy_symbol with hostVar 0x0x62d4e0
GPGPU-Sim PTX: gpgpu_ptx_sim_memcpy_symbol: Found PTX symbol w/ hostVar=0x62d4e0
GPGPU-Sim PTX: gpgpu_ptx_sim_memcpy_symbol: copying const memory 320 bytes  to  symbol lambda+0 @0x180 ...
GPGPU-Sim: synchronize waiting for inactive GPU simulation
GPGPU-Sim API: Stream Manager State
GPGPU-Sim: detected inactive GPU simulation thread

GPGPU-Sim PTX: cudaLaunch for 0x0x403b30 (mode=performance simulation) on stream 0
GPGPU-Sim PTX: pushing kernel '_Z29Pathcalc_Portfolio_KernelGPU2Pf' to stream 0, gridDim= (64,1,1) blockDim = (64,1,1) 
kernel '_Z29Pathcalc_Portfolio_KernelGPU2Pf' transfer to GPU hardware scheduler
GPGPU-Sim uArch: Shader 1 bind to kernel 1 '_Z29Pathcalc_Portfolio_KernelGPU2Pf'
GPGPU-Sim uArch: CTA/core = 8, limited by: cta_limit
GPGPU-Sim uArch: core:  1, cta: 0 initialized @(1,0)
GPGPU-Sim uArch: Shader 2 bind to kernel 1 '_Z29Pathcalc_Portfolio_KernelGPU2Pf'
GPGPU-Sim uArch: core:  2, cta: 0 initialized @(1,0)
GPGPU-Sim uArch: Shader 3 bind to kernel 1 '_Z29Pathcalc_Portfolio_KernelGPU2Pf'
GPGPU-Sim uArch: core:  3, cta: 0 initialized @(1,0)
GPGPU-Sim uArch: Shader 4 bind to kernel 1 '_Z29Pathcalc_Portfolio_KernelGPU2Pf'
GPGPU-Sim uArch: core:  4, cta: 0 initialized @(1,0)
GPGPU-Sim uArch: Shader 5 bind to kernel 1 '_Z29Pathcalc_Portfolio_KernelGPU2Pf'
GPGPU-Sim uArch: core:  5, cta: 0 initialized @(1,0)
GPGPU-Sim uArch: Shader 6 bind to kernel 1 '_Z29Pathcalc_Portfolio_KernelGPU2Pf'
GPGPU-Sim uArch: core:  6, cta: 0 initialized @(1,0)
GPGPU-Sim uArch: Shader 7 bind to kernel 1 '_Z29Pathcalc_Portfolio_KernelGPU2Pf'
GPGPU-Sim uArch: core:  7, cta: 0 initialized @(1,0)
GPGPU-Sim uArch: Shader 8 bind to kernel 1 '_Z29Pathcalc_Portfolio_KernelGPU2Pf'
GPGPU-Sim uArch: core:  8, cta: 0 initialized @(1,0)
GPGPU-Sim uArch: Shader 9 bind to kernel 1 '_Z29Pathcalc_Portfolio_KernelGPU2Pf'
GPGPU-Sim uArch: core:  9, cta: 0 initialized @(1,0)
GPGPU-Sim uArch: Shader 10 bind to kernel 1 '_Z29Pathcalc_Portfolio_KernelGPU2Pf'
GPGPU-Sim uArch: core: 10, cta: 0 initialized @(1,0)
GPGPU-Sim uArch: Shader 11 bind to kernel 1 '_Z29Pathcalc_Portfolio_KernelGPU2Pf'
GPGPU-Sim uArch: core: 11, cta: 0 initialized @(1,0)
GPGPU-Sim uArch: Shader 12 bind to kernel 1 '_Z29Pathcalc_Portfolio_KernelGPU2Pf'
GPGPU-Sim uArch: core: 12, cta: 0 initialized @(1,0)
GPGPU-Sim uArch: Shader 13 bind to kernel 1 '_Z29Pathcalc_Portfolio_KernelGPU2Pf'
GPGPU-Sim uArch: core: 13, cta: 0 initialized @(1,0)
GPGPU-Sim uArch: Shader 14 bind to kernel 1 '_Z29Pathcalc_Portfolio_KernelGPU2Pf'
GPGPU-Sim uArch: core: 14, cta: 0 initialized @(1,0)
GPGPU-Sim uArch: Shader 0 bind to kernel 1 '_Z29Pathcalc_Portfolio_KernelGPU2Pf'
GPGPU-Sim uArch: core:  0, cta: 0 initialized @(1,0)
GPGPU-Sim uArch: core:  1, cta: 1 initialized @(2,0)
GPGPU-Sim uArch: core:  2, cta: 1 initialized @(2,0)
GPGPU-Sim uArch: core:  3, cta: 1 initialized @(2,0)
GPGPU-Sim uArch: core:  4, cta: 1 initialized @(2,0)
GPGPU-Sim uArch: core:  5, cta: 1 initialized @(2,0)
GPGPU-Sim uArch: core:  6, cta: 1 initialized @(2,0)
GPGPU-Sim uArch: core:  7, cta: 1 initialized @(2,0)
GPGPU-Sim uArch: core:  8, cta: 1 initialized @(2,0)
GPGPU-Sim uArch: core:  9, cta: 1 initialized @(2,0)
GPGPU-Sim uArch: core: 10, cta: 1 initialized @(2,0)
GPGPU-Sim uArch: core: 11, cta: 1 initialized @(2,0)
GPGPU-Sim uArch: core: 12, cta: 1 initialized @(2,0)
GPGPU-Sim uArch: core: 13, cta: 1 initialized @(2,0)
GPGPU-Sim uArch: core: 14, cta: 1 initialized @(2,0)
GPGPU-Sim uArch: core:  0, cta: 1 initialized @(2,0)
GPGPU-Sim uArch: core:  1, cta: 2 initialized @(3,0)
GPGPU-Sim uArch: core:  2, cta: 2 initialized @(3,0)
GPGPU-Sim uArch: core:  3, cta: 2 initialized @(3,0)
GPGPU-Sim uArch: core:  4, cta: 2 initialized @(3,0)
GPGPU-Sim uArch: core:  5, cta: 2 initialized @(3,0)
GPGPU-Sim uArch: core:  6, cta: 2 initialized @(3,0)
GPGPU-Sim uArch: core:  7, cta: 2 initialized @(3,0)
GPGPU-Sim uArch: core:  8, cta: 2 initialized @(3,0)
GPGPU-Sim uArch: core:  9, cta: 2 initialized @(3,0)
GPGPU-Sim uArch: core: 10, cta: 2 initialized @(3,0)
GPGPU-Sim uArch: core: 11, cta: 2 initialized @(3,0)
GPGPU-Sim uArch: core: 12, cta: 2 initialized @(3,0)
GPGPU-Sim uArch: core: 13, cta: 2 initialized @(3,0)
GPGPU-Sim uArch: core: 14, cta: 2 initialized @(3,0)
GPGPU-Sim uArch: core:  0, cta: 2 initialized @(3,0)
GPGPU-Sim uArch: core:  1, cta: 3 initialized @(4,0)
GPGPU-Sim uArch: core:  2, cta: 3 initialized @(4,0)
GPGPU-Sim uArch: core:  3, cta: 3 initialized @(4,0)
GPGPU-Sim uArch: core:  4, cta: 3 initialized @(4,0)
GPGPU-Sim uArch: core:  5, cta: 3 initialized @(4,0)
GPGPU-Sim uArch: core:  6, cta: 3 initialized @(4,0)
GPGPU-Sim uArch: core:  7, cta: 3 initialized @(4,0)
GPGPU-Sim uArch: core:  8, cta: 3 initialized @(4,0)
GPGPU-Sim uArch: core:  9, cta: 3 initialized @(4,0)
GPGPU-Sim uArch: core: 10, cta: 3 initialized @(4,0)
GPGPU-Sim uArch: core: 11, cta: 3 initialized @(4,0)
GPGPU-Sim uArch: core: 12, cta: 3 initialized @(4,0)
GPGPU-Sim uArch: core: 13, cta: 3 initialized @(4,0)
GPGPU-Sim uArch: core: 14, cta: 3 initialized @(4,0)
GPGPU-Sim uArch: core:  0, cta: 3 initialized @(4,0)
GPGPU-Sim uArch: core:  1, cta: 4 initialized @(5,0)
GPGPU-Sim uArch: core:  2, cta: 4 initialized @(5,0)
GPGPU-Sim uArch: core:  3, cta: 4 initialized @(5,0)
GPGPU-Sim uArch: core:  4, cta: 4 initialized @(5,0)
GPGPU-Sim uArch: cycles simulated: 500  inst.: 24576 (ipc=49.2) sim_rate=12288 (inst/sec) elapsed = 0:0:00:02 / Fri May 15 01:18:16 2015
GPGPU-Sim uArch: cycles simulated: 1000  inst.: 65536 (ipc=65.5) sim_rate=21845 (inst/sec) elapsed = 0:0:00:03 / Fri May 15 01:18:17 2015
GPGPU-Sim uArch: cycles simulated: 1500  inst.: 90656 (ipc=60.4) sim_rate=22664 (inst/sec) elapsed = 0:0:00:04 / Fri May 15 01:18:18 2015
GPGPU-Sim PTX: 100000 instructions simulated : ctaid=(39,0,0) tid=(31,0,0)
GPGPU-Sim uArch: cycles simulated: 2000  inst.: 147456 (ipc=73.7) sim_rate=29491 (inst/sec) elapsed = 0:0:00:05 / Fri May 15 01:18:19 2015
GPGPU-Sim PTX: 200000 instructions simulated : ctaid=(5,0,0) tid=(31,0,0)
GPGPU-Sim uArch: cycles simulated: 2500  inst.: 258976 (ipc=103.6) sim_rate=43162 (inst/sec) elapsed = 0:0:00:06 / Fri May 15 01:18:20 2015
GPGPU-Sim PTX: 300000 instructions simulated : ctaid=(55,0,0) tid=(31,0,0)
GPGPU-Sim uArch: cycles simulated: 3000  inst.: 300544 (ipc=100.2) sim_rate=42934 (inst/sec) elapsed = 0:0:00:07 / Fri May 15 01:18:21 2015
GPGPU-Sim uArch: cycles simulated: 3500  inst.: 336640 (ipc=96.2) sim_rate=42080 (inst/sec) elapsed = 0:0:00:08 / Fri May 15 01:18:22 2015
GPGPU-Sim uArch: cycles simulated: 4000  inst.: 373888 (ipc=93.5) sim_rate=41543 (inst/sec) elapsed = 0:0:00:09 / Fri May 15 01:18:23 2015
GPGPU-Sim PTX: 400000 instructions simulated : ctaid=(17,0,0) tid=(63,0,0)
GPGPU-Sim uArch: cycles simulated: 4500  inst.: 407040 (ipc=90.5) sim_rate=40704 (inst/sec) elapsed = 0:0:00:10 / Fri May 15 01:18:24 2015
GPGPU-Sim uArch: cycles simulated: 5000  inst.: 443680 (ipc=88.7) sim_rate=36973 (inst/sec) elapsed = 0:0:00:12 / Fri May 15 01:18:26 2015
GPGPU-Sim uArch: cycles simulated: 5500  inst.: 482944 (ipc=87.8) sim_rate=37149 (inst/sec) elapsed = 0:0:00:13 / Fri May 15 01:18:27 2015
GPGPU-Sim PTX: 500000 instructions simulated : ctaid=(10,0,0) tid=(31,0,0)
GPGPU-Sim uArch: cycles simulated: 6000  inst.: 519264 (ipc=86.5) sim_rate=37090 (inst/sec) elapsed = 0:0:00:14 / Fri May 15 01:18:28 2015
GPGPU-Sim uArch: cycles simulated: 6500  inst.: 566688 (ipc=87.2) sim_rate=37779 (inst/sec) elapsed = 0:0:00:15 / Fri May 15 01:18:29 2015
GPGPU-Sim PTX: 600000 instructions simulated : ctaid=(28,0,0) tid=(63,0,0)
GPGPU-Sim uArch: cycles simulated: 7000  inst.: 610816 (ipc=87.3) sim_rate=38176 (inst/sec) elapsed = 0:0:00:16 / Fri May 15 01:18:30 2015
GPGPU-Sim uArch: cycles simulated: 7500  inst.: 649888 (ipc=86.7) sim_rate=38228 (inst/sec) elapsed = 0:0:00:17 / Fri May 15 01:18:31 2015
GPGPU-Sim PTX: 700000 instructions simulated : ctaid=(32,0,0) tid=(31,0,0)
GPGPU-Sim uArch: cycles simulated: 8000  inst.: 691968 (ipc=86.5) sim_rate=38442 (inst/sec) elapsed = 0:0:00:18 / Fri May 15 01:18:32 2015
GPGPU-Sim uArch: cycles simulated: 8500  inst.: 728960 (ipc=85.8) sim_rate=36448 (inst/sec) elapsed = 0:0:00:20 / Fri May 15 01:18:34 2015
GPGPU-Sim uArch: cycles simulated: 9000  inst.: 767392 (ipc=85.3) sim_rate=36542 (inst/sec) elapsed = 0:0:00:21 / Fri May 15 01:18:35 2015
GPGPU-Sim PTX: 800000 instructions simulated : ctaid=(6,0,0) tid=(63,0,0)
GPGPU-Sim uArch: cycles simulated: 9500  inst.: 803968 (ipc=84.6) sim_rate=36544 (inst/sec) elapsed = 0:0:00:22 / Fri May 15 01:18:36 2015
GPGPU-Sim uArch: cycles simulated: 10000  inst.: 840992 (ipc=84.1) sim_rate=36564 (inst/sec) elapsed = 0:0:00:23 / Fri May 15 01:18:37 2015
GPGPU-Sim uArch: cycles simulated: 10500  inst.: 883712 (ipc=84.2) sim_rate=36821 (inst/sec) elapsed = 0:0:00:24 / Fri May 15 01:18:38 2015
GPGPU-Sim PTX: 900000 instructions simulated : ctaid=(53,0,0) tid=(63,0,0)
GPGPU-Sim uArch: cycles simulated: 11000  inst.: 925184 (ipc=84.1) sim_rate=37007 (inst/sec) elapsed = 0:0:00:25 / Fri May 15 01:18:39 2015
GPGPU-Sim uArch: cycles simulated: 11500  inst.: 965504 (ipc=84.0) sim_rate=37134 (inst/sec) elapsed = 0:0:00:26 / Fri May 15 01:18:40 2015
GPGPU-Sim PTX: 1000000 instructions simulated : ctaid=(38,0,0) tid=(31,0,0)
GPGPU-Sim uArch: cycles simulated: 12000  inst.: 1013728 (ipc=84.5) sim_rate=37545 (inst/sec) elapsed = 0:0:00:27 / Fri May 15 01:18:41 2015
GPGPU-Sim uArch: cycles simulated: 12500  inst.: 1061920 (ipc=85.0) sim_rate=36617 (inst/sec) elapsed = 0:0:00:29 / Fri May 15 01:18:43 2015
GPGPU-Sim PTX: 1100000 instructions simulated : ctaid=(1,0,0) tid=(63,0,0)
GPGPU-Sim uArch: cycles simulated: 13000  inst.: 1099584 (ipc=84.6) sim_rate=36652 (inst/sec) elapsed = 0:0:00:30 / Fri May 15 01:18:44 2015
GPGPU-Sim uArch: cycles simulated: 13500  inst.: 1137120 (ipc=84.2) sim_rate=36681 (inst/sec) elapsed = 0:0:00:31 / Fri May 15 01:18:45 2015
GPGPU-Sim uArch: cycles simulated: 14000  inst.: 1180096 (ipc=84.3) sim_rate=36878 (inst/sec) elapsed = 0:0:00:32 / Fri May 15 01:18:46 2015
GPGPU-Sim PTX: 1200000 instructions simulated : ctaid=(28,0,0) tid=(31,0,0)
GPGPU-Sim uArch: cycles simulated: 14500  inst.: 1219936 (ipc=84.1) sim_rate=36967 (inst/sec) elapsed = 0:0:00:33 / Fri May 15 01:18:47 2015
GPGPU-Sim uArch: cycles simulated: 15000  inst.: 1267552 (ipc=84.5) sim_rate=37280 (inst/sec) elapsed = 0:0:00:34 / Fri May 15 01:18:48 2015
GPGPU-Sim PTX: 1300000 instructions simulated : ctaid=(29,0,0) tid=(31,0,0)
GPGPU-Sim uArch: cycles simulated: 15500  inst.: 1313248 (ipc=84.7) sim_rate=36479 (inst/sec) elapsed = 0:0:00:36 / Fri May 15 01:18:50 2015
GPGPU-Sim uArch: cycles simulated: 16000  inst.: 1360896 (ipc=85.1) sim_rate=36780 (inst/sec) elapsed = 0:0:00:37 / Fri May 15 01:18:51 2015
GPGPU-Sim PTX: 1400000 instructions simulated : ctaid=(58,0,0) tid=(63,0,0)
GPGPU-Sim uArch: cycles simulated: 16500  inst.: 1409728 (ipc=85.4) sim_rate=37098 (inst/sec) elapsed = 0:0:00:38 / Fri May 15 01:18:52 2015
GPGPU-Sim uArch: cycles simulated: 17000  inst.: 1455680 (ipc=85.6) sim_rate=37325 (inst/sec) elapsed = 0:0:00:39 / Fri May 15 01:18:53 2015
GPGPU-Sim PTX: 1500000 instructions simulated : ctaid=(61,0,0) tid=(31,0,0)
GPGPU-Sim uArch: cycles simulated: 17500  inst.: 1502496 (ipc=85.9) sim_rate=37562 (inst/sec) elapsed = 0:0:00:40 / Fri May 15 01:18:54 2015
GPGPU-Sim uArch: cycles simulated: 18000  inst.: 1538496 (ipc=85.5) sim_rate=37524 (inst/sec) elapsed = 0:0:00:41 / Fri May 15 01:18:55 2015
GPGPU-Sim uArch: cycles simulated: 18500  inst.: 1582848 (ipc=85.6) sim_rate=37686 (inst/sec) elapsed = 0:0:00:42 / Fri May 15 01:18:56 2015
GPGPU-Sim PTX: 1600000 instructions simulated : ctaid=(29,0,0) tid=(31,0,0)
GPGPU-Sim uArch: cycles simulated: 19000  inst.: 1632864 (ipc=85.9) sim_rate=37110 (inst/sec) elapsed = 0:0:00:44 / Fri May 15 01:18:58 2015
GPGPU-Sim uArch: cycles simulated: 19500  inst.: 1678400 (ipc=86.1) sim_rate=37297 (inst/sec) elapsed = 0:0:00:45 / Fri May 15 01:18:59 2015
GPGPU-Sim PTX: 1700000 instructions simulated : ctaid=(35,0,0) tid=(31,0,0)
GPGPU-Sim uArch: cycles simulated: 20000  inst.: 1733920 (ipc=86.7) sim_rate=37693 (inst/sec) elapsed = 0:0:00:46 / Fri May 15 01:19:00 2015
GPGPU-Sim uArch: cycles simulated: 20500  inst.: 1776768 (ipc=86.7) sim_rate=37803 (inst/sec) elapsed = 0:0:00:47 / Fri May 15 01:19:01 2015
GPGPU-Sim PTX: 1800000 instructions simulated : ctaid=(9,0,0) tid=(63,0,0)
GPGPU-Sim uArch: cycles simulated: 21000  inst.: 1828192 (ipc=87.1) sim_rate=37310 (inst/sec) elapsed = 0:0:00:49 / Fri May 15 01:19:03 2015
GPGPU-Sim uArch: cycles simulated: 21500  inst.: 1870848 (ipc=87.0) sim_rate=37416 (inst/sec) elapsed = 0:0:00:50 / Fri May 15 01:19:04 2015
GPGPU-Sim PTX: 1900000 instructions simulated : ctaid=(24,0,0) tid=(31,0,0)
GPGPU-Sim uArch: cycles simulated: 22000  inst.: 1918656 (ipc=87.2) sim_rate=37620 (inst/sec) elapsed = 0:0:00:51 / Fri May 15 01:19:05 2015
GPGPU-Sim uArch: cycles simulated: 22500  inst.: 1962400 (ipc=87.2) sim_rate=37026 (inst/sec) elapsed = 0:0:00:53 / Fri May 15 01:19:07 2015
GPGPU-Sim PTX: 2000000 instructions simulated : ctaid=(45,0,0) tid=(63,0,0)
GPGPU-Sim uArch: cycles simulated: 23000  inst.: 2008864 (ipc=87.3) sim_rate=37201 (inst/sec) elapsed = 0:0:00:54 / Fri May 15 01:19:08 2015
GPGPU-Sim uArch: cycles simulated: 23500  inst.: 2058400 (ipc=87.6) sim_rate=37425 (inst/sec) elapsed = 0:0:00:55 / Fri May 15 01:19:09 2015
GPGPU-Sim PTX: 2100000 instructions simulated : ctaid=(52,0,0) tid=(63,0,0)
GPGPU-Sim uArch: cycles simulated: 24000  inst.: 2103680 (ipc=87.7) sim_rate=36906 (inst/sec) elapsed = 0:0:00:57 / Fri May 15 01:19:11 2015
GPGPU-Sim uArch: cycles simulated: 24500  inst.: 2162048 (ipc=88.2) sim_rate=37276 (inst/sec) elapsed = 0:0:00:58 / Fri May 15 01:19:12 2015
GPGPU-Sim PTX: 2200000 instructions simulated : ctaid=(23,0,0) tid=(63,0,0)
GPGPU-Sim uArch: cycles simulated: 25000  inst.: 2203776 (ipc=88.2) sim_rate=37352 (inst/sec) elapsed = 0:0:00:59 / Fri May 15 01:19:13 2015
GPGPU-Sim uArch: cycles simulated: 25500  inst.: 2246944 (ipc=88.1) sim_rate=37449 (inst/sec) elapsed = 0:0:01:00 / Fri May 15 01:19:14 2015
GPGPU-Sim PTX: 2300000 instructions simulated : ctaid=(43,0,0) tid=(63,0,0)
GPGPU-Sim uArch: cycles simulated: 26000  inst.: 2297216 (ipc=88.4) sim_rate=37051 (inst/sec) elapsed = 0:0:01:02 / Fri May 15 01:19:16 2015
GPGPU-Sim uArch: cycles simulated: 26500  inst.: 2344512 (ipc=88.5) sim_rate=37214 (inst/sec) elapsed = 0:0:01:03 / Fri May 15 01:19:17 2015
GPGPU-Sim uArch: cycles simulated: 27000  inst.: 2385312 (ipc=88.3) sim_rate=36697 (inst/sec) elapsed = 0:0:01:05 / Fri May 15 01:19:19 2015
GPGPU-Sim PTX: 2400000 instructions simulated : ctaid=(7,0,0) tid=(31,0,0)
GPGPU-Sim uArch: cycles simulated: 27500  inst.: 2432000 (ipc=88.4) sim_rate=36848 (inst/sec) elapsed = 0:0:01:06 / Fri May 15 01:19:20 2015
GPGPU-Sim uArch: cycles simulated: 28000  inst.: 2478688 (ipc=88.5) sim_rate=36995 (inst/sec) elapsed = 0:0:01:07 / Fri May 15 01:19:21 2015
GPGPU-Sim PTX: 2500000 instructions simulated : ctaid=(42,0,0) tid=(63,0,0)
GPGPU-Sim uArch: cycles simulated: 28500  inst.: 2529312 (ipc=88.7) sim_rate=36656 (inst/sec) elapsed = 0:0:01:09 / Fri May 15 01:19:23 2015
GPGPU-Sim uArch: cycles simulated: 29000  inst.: 2573152 (ipc=88.7) sim_rate=36759 (inst/sec) elapsed = 0:0:01:10 / Fri May 15 01:19:24 2015
GPGPU-Sim PTX: 2600000 instructions simulated : ctaid=(42,0,0) tid=(31,0,0)
GPGPU-Sim uArch: cycles simulated: 29500  inst.: 2616992 (ipc=88.7) sim_rate=36859 (inst/sec) elapsed = 0:0:01:11 / Fri May 15 01:19:25 2015
GPGPU-Sim uArch: cycles simulated: 30000  inst.: 2666944 (ipc=88.9) sim_rate=36533 (inst/sec) elapsed = 0:0:01:13 / Fri May 15 01:19:27 2015
GPGPU-Sim PTX: 2700000 instructions simulated : ctaid=(6,0,0) tid=(31,0,0)
GPGPU-Sim uArch: cycles simulated: 30500  inst.: 2707040 (ipc=88.8) sim_rate=36093 (inst/sec) elapsed = 0:0:01:15 / Fri May 15 01:19:29 2015
GPGPU-Sim uArch: cycles simulated: 31000  inst.: 2748864 (ipc=88.7) sim_rate=36169 (inst/sec) elapsed = 0:0:01:16 / Fri May 15 01:19:30 2015
GPGPU-Sim PTX: 2800000 instructions simulated : ctaid=(53,0,0) tid=(63,0,0)
GPGPU-Sim uArch: cycles simulated: 31500  inst.: 2789984 (ipc=88.6) sim_rate=36233 (inst/sec) elapsed = 0:0:01:17 / Fri May 15 01:19:31 2015
GPGPU-Sim uArch: cycles simulated: 32000  inst.: 2838240 (ipc=88.7) sim_rate=35927 (inst/sec) elapsed = 0:0:01:19 / Fri May 15 01:19:33 2015
GPGPU-Sim uArch: cycles simulated: 32500  inst.: 2882400 (ipc=88.7) sim_rate=36030 (inst/sec) elapsed = 0:0:01:20 / Fri May 15 01:19:34 2015
GPGPU-Sim PTX: 2900000 instructions simulated : ctaid=(59,0,0) tid=(63,0,0)
GPGPU-Sim uArch: cycles simulated: 33000  inst.: 2929184 (ipc=88.8) sim_rate=36162 (inst/sec) elapsed = 0:0:01:21 / Fri May 15 01:19:35 2015
GPGPU-Sim uArch: cycles simulated: 33500  inst.: 2972960 (ipc=88.7) sim_rate=35818 (inst/sec) elapsed = 0:0:01:23 / Fri May 15 01:19:37 2015
GPGPU-Sim PTX: 3000000 instructions simulated : ctaid=(40,0,0) tid=(31,0,0)
GPGPU-Sim uArch: cycles simulated: 34000  inst.: 3024000 (ipc=88.9) sim_rate=36000 (inst/sec) elapsed = 0:0:01:24 / Fri May 15 01:19:38 2015
GPGPU-Sim uArch: cycles simulated: 34500  inst.: 3066592 (ipc=88.9) sim_rate=35658 (inst/sec) elapsed = 0:0:01:26 / Fri May 15 01:19:40 2015
GPGPU-Sim PTX: 3100000 instructions simulated : ctaid=(14,0,0) tid=(31,0,0)
GPGPU-Sim uArch: cycles simulated: 35000  inst.: 3125248 (ipc=89.3) sim_rate=35922 (inst/sec) elapsed = 0:0:01:27 / Fri May 15 01:19:41 2015
GPGPU-Sim uArch: cycles simulated: 35500  inst.: 3162848 (ipc=89.1) sim_rate=35941 (inst/sec) elapsed = 0:0:01:28 / Fri May 15 01:19:42 2015
GPGPU-Sim PTX: 3200000 instructions simulated : ctaid=(13,0,0) tid=(63,0,0)
GPGPU-Sim uArch: cycles simulated: 36000  inst.: 3226496 (ipc=89.6) sim_rate=36252 (inst/sec) elapsed = 0:0:01:29 / Fri May 15 01:19:43 2015
GPGPU-Sim PTX: 3300000 instructions simulated : ctaid=(44,0,0) tid=(63,0,0)
GPGPU-Sim uArch: cycles simulated: 36500  inst.: 3282912 (ipc=89.9) sim_rate=36075 (inst/sec) elapsed = 0:0:01:31 / Fri May 15 01:19:45 2015
GPGPU-Sim uArch: cycles simulated: 37000  inst.: 3373632 (ipc=91.2) sim_rate=36669 (inst/sec) elapsed = 0:0:01:32 / Fri May 15 01:19:46 2015
GPGPU-Sim PTX: 3400000 instructions simulated : ctaid=(9,0,0) tid=(31,0,0)
GPGPU-Sim PTX: 3500000 instructions simulated : ctaid=(53,0,0) tid=(63,0,0)
GPGPU-Sim uArch: cycles simulated: 37500  inst.: 3481920 (ipc=92.9) sim_rate=37041 (inst/sec) elapsed = 0:0:01:34 / Fri May 15 01:19:48 2015
GPGPU-Sim PTX: 3600000 instructions simulated : ctaid=(20,0,0) tid=(31,0,0)
GPGPU-Sim uArch: cycles simulated: 38000  inst.: 3578816 (ipc=94.2) sim_rate=37671 (inst/sec) elapsed = 0:0:01:35 / Fri May 15 01:19:49 2015
GPGPU-Sim PTX: 3700000 instructions simulated : ctaid=(57,0,0) tid=(63,0,0)
GPGPU-Sim uArch: cycles simulated: 38500  inst.: 3679616 (ipc=95.6) sim_rate=37934 (inst/sec) elapsed = 0:0:01:37 / Fri May 15 01:19:51 2015
GPGPU-Sim PTX: 3800000 instructions simulated : ctaid=(49,0,0) tid=(63,0,0)
GPGPU-Sim uArch: cycles simulated: 39000  inst.: 3775360 (ipc=96.8) sim_rate=38524 (inst/sec) elapsed = 0:0:01:38 / Fri May 15 01:19:52 2015
GPGPU-Sim PTX: 3900000 instructions simulated : ctaid=(27,0,0) tid=(31,0,0)
GPGPU-Sim uArch: cycles simulated: 39500  inst.: 3882208 (ipc=98.3) sim_rate=38822 (inst/sec) elapsed = 0:0:01:40 / Fri May 15 01:19:54 2015
GPGPU-Sim PTX: 4000000 instructions simulated : ctaid=(35,0,0) tid=(31,0,0)
GPGPU-Sim uArch: cycles simulated: 40000  inst.: 4005696 (ipc=100.1) sim_rate=39660 (inst/sec) elapsed = 0:0:01:41 / Fri May 15 01:19:55 2015
GPGPU-Sim PTX: 4100000 instructions simulated : ctaid=(43,0,0) tid=(63,0,0)
GPGPU-Sim uArch: cycles simulated: 40500  inst.: 4123136 (ipc=101.8) sim_rate=40030 (inst/sec) elapsed = 0:0:01:43 / Fri May 15 01:19:57 2015
GPGPU-Sim PTX: 4200000 instructions simulated : ctaid=(60,0,0) tid=(63,0,0)
GPGPU-Sim uArch: cycles simulated: 41000  inst.: 4225728 (ipc=103.1) sim_rate=40245 (inst/sec) elapsed = 0:0:01:45 / Fri May 15 01:19:59 2015
GPGPU-Sim PTX: 4300000 instructions simulated : ctaid=(8,0,0) tid=(31,0,0)
GPGPU-Sim uArch: cycles simulated: 41500  inst.: 4324224 (ipc=104.2) sim_rate=40413 (inst/sec) elapsed = 0:0:01:47 / Fri May 15 01:20:01 2015
GPGPU-Sim PTX: 4400000 instructions simulated : ctaid=(25,0,0) tid=(31,0,0)
GPGPU-Sim uArch: cycles simulated: 42000  inst.: 4434368 (ipc=105.6) sim_rate=40682 (inst/sec) elapsed = 0:0:01:49 / Fri May 15 01:20:03 2015
GPGPU-Sim PTX: 4500000 instructions simulated : ctaid=(38,0,0) tid=(31,0,0)
GPGPU-Sim uArch: cycles simulated: 42500  inst.: 4550080 (ipc=107.1) sim_rate=40991 (inst/sec) elapsed = 0:0:01:51 / Fri May 15 01:20:05 2015
GPGPU-Sim PTX: 4600000 instructions simulated : ctaid=(10,0,0) tid=(31,0,0)
GPGPU-Sim uArch: cycles simulated: 43000  inst.: 4661184 (ipc=108.4) sim_rate=41249 (inst/sec) elapsed = 0:0:01:53 / Fri May 15 01:20:07 2015
GPGPU-Sim PTX: 4700000 instructions simulated : ctaid=(42,0,0) tid=(31,0,0)
GPGPU-Sim uArch: cycles simulated: 43500  inst.: 4769248 (ipc=109.6) sim_rate=41114 (inst/sec) elapsed = 0:0:01:56 / Fri May 15 01:20:10 2015
GPGPU-Sim PTX: 4800000 instructions simulated : ctaid=(17,0,0) tid=(63,0,0)
GPGPU-Sim PTX: 4900000 instructions simulated : ctaid=(35,0,0) tid=(31,0,0)
GPGPU-Sim uArch: cycles simulated: 44000  inst.: 4875936 (ipc=110.8) sim_rate=41321 (inst/sec) elapsed = 0:0:01:58 / Fri May 15 01:20:12 2015
GPGPU-Sim PTX: 5000000 instructions simulated : ctaid=(6,0,0) tid=(31,0,0)
GPGPU-Sim uArch: cycles simulated: 44500  inst.: 4985216 (ipc=112.0) sim_rate=41543 (inst/sec) elapsed = 0:0:02:00 / Fri May 15 01:20:14 2015
GPGPU-Sim PTX: 5100000 instructions simulated : ctaid=(23,0,0) tid=(31,0,0)
GPGPU-Sim uArch: cycles simulated: 45000  inst.: 5094304 (ipc=113.2) sim_rate=41756 (inst/sec) elapsed = 0:0:02:02 / Fri May 15 01:20:16 2015
GPGPU-Sim PTX: 5200000 instructions simulated : ctaid=(29,0,0) tid=(63,0,0)
GPGPU-Sim uArch: cycles simulated: 45500  inst.: 5197024 (ipc=114.2) sim_rate=41911 (inst/sec) elapsed = 0:0:02:04 / Fri May 15 01:20:18 2015
GPGPU-Sim PTX: 5300000 instructions simulated : ctaid=(49,0,0) tid=(63,0,0)
GPGPU-Sim uArch: cycles simulated: 46000  inst.: 5299040 (ipc=115.2) sim_rate=42055 (inst/sec) elapsed = 0:0:02:06 / Fri May 15 01:20:20 2015
GPGPU-Sim PTX: 5400000 instructions simulated : ctaid=(53,0,0) tid=(63,0,0)
GPGPU-Sim uArch: cycles simulated: 46500  inst.: 5395840 (ipc=116.0) sim_rate=42486 (inst/sec) elapsed = 0:0:02:07 / Fri May 15 01:20:21 2015
GPGPU-Sim PTX: 5500000 instructions simulated : ctaid=(16,0,0) tid=(63,0,0)
GPGPU-Sim uArch: cycles simulated: 47000  inst.: 5506048 (ipc=117.1) sim_rate=42682 (inst/sec) elapsed = 0:0:02:09 / Fri May 15 01:20:23 2015
GPGPU-Sim PTX: 5600000 instructions simulated : ctaid=(34,0,0) tid=(31,0,0)
GPGPU-Sim uArch: cycles simulated: 47500  inst.: 5615680 (ipc=118.2) sim_rate=42867 (inst/sec) elapsed = 0:0:02:11 / Fri May 15 01:20:25 2015
GPGPU-Sim PTX: 5700000 instructions simulated : ctaid=(45,0,0) tid=(31,0,0)
GPGPU-Sim uArch: cycles simulated: 48000  inst.: 5727520 (ipc=119.3) sim_rate=43390 (inst/sec) elapsed = 0:0:02:12 / Fri May 15 01:20:26 2015
GPGPU-Sim PTX: 5800000 instructions simulated : ctaid=(0,0,0) tid=(63,0,0)
GPGPU-Sim uArch: cycles simulated: 48500  inst.: 5827968 (ipc=120.2) sim_rate=43492 (inst/sec) elapsed = 0:0:02:14 / Fri May 15 01:20:28 2015
GPGPU-Sim PTX: 5900000 instructions simulated : ctaid=(59,0,0) tid=(63,0,0)
GPGPU-Sim uArch: cycles simulated: 49000  inst.: 5927296 (ipc=121.0) sim_rate=43905 (inst/sec) elapsed = 0:0:02:15 / Fri May 15 01:20:29 2015
GPGPU-Sim PTX: 6000000 instructions simulated : ctaid=(37,0,0) tid=(63,0,0)
GPGPU-Sim uArch: cycles simulated: 49500  inst.: 6035072 (ipc=121.9) sim_rate=44051 (inst/sec) elapsed = 0:0:02:17 / Fri May 15 01:20:31 2015
GPGPU-Sim PTX: 6100000 instructions simulated : ctaid=(63,0,0) tid=(31,0,0)
GPGPU-Sim uArch: cycles simulated: 50000  inst.: 6152288 (ipc=123.0) sim_rate=44261 (inst/sec) elapsed = 0:0:02:19 / Fri May 15 01:20:33 2015
GPGPU-Sim PTX: 6200000 instructions simulated : ctaid=(54,0,0) tid=(31,0,0)
GPGPU-Sim uArch: cycles simulated: 50500  inst.: 6265440 (ipc=124.1) sim_rate=44753 (inst/sec) elapsed = 0:0:02:20 / Fri May 15 01:20:34 2015
GPGPU-Sim PTX: 6300000 instructions simulated : ctaid=(30,0,0) tid=(63,0,0)
GPGPU-Sim PTX: 6400000 instructions simulated : ctaid=(62,0,0) tid=(63,0,0)
GPGPU-Sim uArch: cycles simulated: 51000  inst.: 6378816 (ipc=125.1) sim_rate=44921 (inst/sec) elapsed = 0:0:02:22 / Fri May 15 01:20:36 2015
GPGPU-Sim PTX: 6500000 instructions simulated : ctaid=(5,0,0) tid=(63,0,0)
GPGPU-Sim uArch: cycles simulated: 51500  inst.: 6483744 (ipc=125.9) sim_rate=45340 (inst/sec) elapsed = 0:0:02:23 / Fri May 15 01:20:37 2015
GPGPU-Sim PTX: 6600000 instructions simulated : ctaid=(60,0,0) tid=(63,0,0)
GPGPU-Sim uArch: cycles simulated: 52000  inst.: 6592192 (ipc=126.8) sim_rate=45463 (inst/sec) elapsed = 0:0:02:25 / Fri May 15 01:20:39 2015
GPGPU-Sim PTX: 6700000 instructions simulated : ctaid=(59,0,0) tid=(63,0,0)
GPGPU-Sim uArch: cycles simulated: 52500  inst.: 6705856 (ipc=127.7) sim_rate=45618 (inst/sec) elapsed = 0:0:02:27 / Fri May 15 01:20:41 2015
GPGPU-Sim PTX: 6800000 instructions simulated : ctaid=(39,0,0) tid=(31,0,0)
GPGPU-Sim uArch: cycles simulated: 53000  inst.: 6819456 (ipc=128.7) sim_rate=45768 (inst/sec) elapsed = 0:0:02:29 / Fri May 15 01:20:43 2015
GPGPU-Sim PTX: 6900000 instructions simulated : ctaid=(37,0,0) tid=(63,0,0)
GPGPU-Sim uArch: cycles simulated: 53500  inst.: 6931904 (ipc=129.6) sim_rate=45906 (inst/sec) elapsed = 0:0:02:31 / Fri May 15 01:20:45 2015
GPGPU-Sim PTX: 7000000 instructions simulated : ctaid=(19,0,0) tid=(63,0,0)
GPGPU-Sim uArch: cycles simulated: 54000  inst.: 7039488 (ipc=130.4) sim_rate=46009 (inst/sec) elapsed = 0:0:02:33 / Fri May 15 01:20:47 2015
GPGPU-Sim PTX: 7100000 instructions simulated : ctaid=(56,0,0) tid=(31,0,0)
GPGPU-Sim uArch: cycles simulated: 54500  inst.: 7145568 (ipc=131.1) sim_rate=46100 (inst/sec) elapsed = 0:0:02:35 / Fri May 15 01:20:49 2015
GPGPU-Sim PTX: 7200000 instructions simulated : ctaid=(26,0,0) tid=(31,0,0)
GPGPU-Sim uArch: cycles simulated: 55000  inst.: 7254720 (ipc=131.9) sim_rate=46208 (inst/sec) elapsed = 0:0:02:37 / Fri May 15 01:20:51 2015
GPGPU-Sim PTX: 7300000 instructions simulated : ctaid=(29,0,0) tid=(31,0,0)
GPGPU-Sim uArch: cycles simulated: 55500  inst.: 7361216 (ipc=132.6) sim_rate=46296 (inst/sec) elapsed = 0:0:02:39 / Fri May 15 01:20:53 2015
GPGPU-Sim PTX: 7400000 instructions simulated : ctaid=(50,0,0) tid=(31,0,0)
GPGPU-Sim uArch: cycles simulated: 56000  inst.: 7467264 (ipc=133.3) sim_rate=46380 (inst/sec) elapsed = 0:0:02:41 / Fri May 15 01:20:55 2015
GPGPU-Sim PTX: 7500000 instructions simulated : ctaid=(57,0,0) tid=(31,0,0)
GPGPU-Sim uArch: cycles simulated: 56500  inst.: 7570400 (ipc=134.0) sim_rate=46444 (inst/sec) elapsed = 0:0:02:43 / Fri May 15 01:20:57 2015
GPGPU-Sim PTX: 7600000 instructions simulated : ctaid=(27,0,0) tid=(63,0,0)
GPGPU-Sim PTX: 7700000 instructions simulated : ctaid=(8,0,0) tid=(31,0,0)
GPGPU-Sim uArch: cycles simulated: 57000  inst.: 7677408 (ipc=134.7) sim_rate=46249 (inst/sec) elapsed = 0:0:02:46 / Fri May 15 01:21:00 2015
GPGPU-Sim PTX: 7800000 instructions simulated : ctaid=(12,0,0) tid=(63,0,0)
GPGPU-Sim uArch: cycles simulated: 57500  inst.: 7789344 (ipc=135.5) sim_rate=46365 (inst/sec) elapsed = 0:0:02:48 / Fri May 15 01:21:02 2015
GPGPU-Sim PTX: 7900000 instructions simulated : ctaid=(10,0,0) tid=(63,0,0)
GPGPU-Sim uArch: cycles simulated: 58000  inst.: 7896128 (ipc=136.1) sim_rate=46447 (inst/sec) elapsed = 0:0:02:50 / Fri May 15 01:21:04 2015
GPGPU-Sim PTX: 8000000 instructions simulated : ctaid=(10,0,0) tid=(63,0,0)
GPGPU-Sim uArch: cycles simulated: 58500  inst.: 8007200 (ipc=136.9) sim_rate=46553 (inst/sec) elapsed = 0:0:02:52 / Fri May 15 01:21:06 2015
GPGPU-Sim PTX: 8100000 instructions simulated : ctaid=(22,0,0) tid=(31,0,0)
GPGPU-Sim uArch: cycles simulated: 59000  inst.: 8116000 (ipc=137.6) sim_rate=46643 (inst/sec) elapsed = 0:0:02:54 / Fri May 15 01:21:08 2015
GPGPU-Sim PTX: 8200000 instructions simulated : ctaid=(7,0,0) tid=(63,0,0)
GPGPU-Sim uArch: cycles simulated: 59500  inst.: 8225472 (ipc=138.2) sim_rate=46735 (inst/sec) elapsed = 0:0:02:56 / Fri May 15 01:21:10 2015
GPGPU-Sim PTX: 8300000 instructions simulated : ctaid=(53,0,0) tid=(31,0,0)
GPGPU-Sim uArch: cycles simulated: 60000  inst.: 8331616 (ipc=138.9) sim_rate=46806 (inst/sec) elapsed = 0:0:02:58 / Fri May 15 01:21:12 2015
GPGPU-Sim PTX: 8400000 instructions simulated : ctaid=(42,0,0) tid=(63,0,0)
GPGPU-Sim uArch: cycles simulated: 60500  inst.: 8441504 (ipc=139.5) sim_rate=46897 (inst/sec) elapsed = 0:0:03:00 / Fri May 15 01:21:14 2015
GPGPU-Sim PTX: 8500000 instructions simulated : ctaid=(22,0,0) tid=(31,0,0)
GPGPU-Sim uArch: cycles simulated: 61000  inst.: 8555328 (ipc=140.3) sim_rate=47007 (inst/sec) elapsed = 0:0:03:02 / Fri May 15 01:21:16 2015
GPGPU-Sim PTX: 8600000 instructions simulated : ctaid=(18,0,0) tid=(63,0,0)
GPGPU-Sim uArch: cycles simulated: 61500  inst.: 8665056 (ipc=140.9) sim_rate=47350 (inst/sec) elapsed = 0:0:03:03 / Fri May 15 01:21:17 2015
GPGPU-Sim PTX: 8700000 instructions simulated : ctaid=(1,0,0) tid=(31,0,0)
GPGPU-Sim uArch: cycles simulated: 62000  inst.: 8773568 (ipc=141.5) sim_rate=47424 (inst/sec) elapsed = 0:0:03:05 / Fri May 15 01:21:19 2015
GPGPU-Sim PTX: 8800000 instructions simulated : ctaid=(36,0,0) tid=(31,0,0)
GPGPU-Sim PTX: 8900000 instructions simulated : ctaid=(22,0,0) tid=(63,0,0)
GPGPU-Sim uArch: cycles simulated: 62500  inst.: 8877600 (ipc=142.0) sim_rate=47729 (inst/sec) elapsed = 0:0:03:06 / Fri May 15 01:21:20 2015
GPGPU-Sim PTX: 9000000 instructions simulated : ctaid=(29,0,0) tid=(63,0,0)
GPGPU-Sim uArch: cycles simulated: 63000  inst.: 8991488 (ipc=142.7) sim_rate=47827 (inst/sec) elapsed = 0:0:03:08 / Fri May 15 01:21:22 2015
GPGPU-Sim PTX: 9100000 instructions simulated : ctaid=(49,0,0) tid=(63,0,0)
GPGPU-Sim uArch: cycles simulated: 63500  inst.: 9108864 (ipc=143.4) sim_rate=48195 (inst/sec) elapsed = 0:0:03:09 / Fri May 15 01:21:23 2015
GPGPU-Sim PTX: 9200000 instructions simulated : ctaid=(59,0,0) tid=(63,0,0)
GPGPU-Sim uArch: cycles simulated: 64000  inst.: 9215040 (ipc=144.0) sim_rate=48246 (inst/sec) elapsed = 0:0:03:11 / Fri May 15 01:21:25 2015
GPGPU-Sim PTX: 9300000 instructions simulated : ctaid=(35,0,0) tid=(31,0,0)
GPGPU-Sim uArch: cycles simulated: 64500  inst.: 9318880 (ipc=144.5) sim_rate=48535 (inst/sec) elapsed = 0:0:03:12 / Fri May 15 01:21:26 2015
GPGPU-Sim PTX: 9400000 instructions simulated : ctaid=(29,0,0) tid=(31,0,0)
GPGPU-Sim uArch: cycles simulated: 65000  inst.: 9421984 (ipc=145.0) sim_rate=48566 (inst/sec) elapsed = 0:0:03:14 / Fri May 15 01:21:28 2015
GPGPU-Sim PTX: 9500000 instructions simulated : ctaid=(29,0,0) tid=(63,0,0)
GPGPU-Sim uArch: cycles simulated: 65500  inst.: 9527712 (ipc=145.5) sim_rate=48860 (inst/sec) elapsed = 0:0:03:15 / Fri May 15 01:21:29 2015
GPGPU-Sim PTX: 9600000 instructions simulated : ctaid=(15,0,0) tid=(63,0,0)
GPGPU-Sim uArch: cycles simulated: 66000  inst.: 9635936 (ipc=146.0) sim_rate=48913 (inst/sec) elapsed = 0:0:03:17 / Fri May 15 01:21:31 2015
[...]
mf_lat_table:0 	0 	0 	0 	0 	0 	0 	115851 	1823228 	37479 	10618 	1 	0 	0 	0 	0 	0 	0 	0 	0 	0 	0 	0 	0 	0 	0 	0 	0 	0 	0 	0 	0 	
icnt2mem_lat_table:0 	0 	0 	2365776 	503381 	10772 	10499 	9988 	22594 	741 	0 	0 	0 	0 	0 	0 	0 	0 	0 	0 	0 	0 	0 	0 	
icnt2sh_lat_table:0 	0 	0 	1385701 	210569 	922 	0 	0 	0 	0 	0 	915 	2256 	4812 	10456 	2041 	0 	0 	21 	26 	139594 	228203 	1661 	0 	
mf_lat_pw_table:0 	0 	0 	0 	0 	0 	0 	1543 	8997 	111 	19 	0 	0 	0 	0 	0 	0 	0 	0 	0 	0 	0 	0 	0 	0 	0 	0 	0 	0 	0 	0 	0 	
maximum concurrent accesses to same row:
dram[0]:        56        56        48        60        48        48        48        50        44        48        48        42        44        44        44        44 
dram[1]:        56        60        56        60        52        48        44        52        46        36        44        48        38        40        40        34 
dram[2]:        56        56        56        56        56        52        52        52        48        46        48        40        40        40        40        48 
dram[3]:        52        56        52        52        48        46        44        48        44        44        44        44        40        44        44        40 
dram[4]:        56        60        60        56        48        52        44        48        38        42        38        46        46        42        42        35 
dram[5]:        56        56        56        56        48        52        50        52        48        56        44        40        40        44        40        44 
maximum service time to same row:
dram[0]:     28663     53468     37783     37465     36314     45625     45725     35304     18012     20195     30271     20381     24125     12744     15618     25431 
dram[1]:     32125     31023     47503     41119     27035     39894     32035     28637     15864     25293     20210     26562     13452     21405     25006     27012 
dram[2]:     33535     25466     38025     61097     91940     44455     38225     34303     29547     24918     25112     34130     19603     20903     29326     27004 
dram[3]:     25432     44447     16331     33583     27079     47971     47850     39543     13667     25248     25433     14910     16209     37256     13573     21726 
dram[4]:     30857     14438     12647     26931     28525     25550     23590     53371     21744     24444     23279     17712     15567     20233     16440     19895 
dram[5]:     58244     35266     63172     35363     33885     24991     55981     64894     18175     14853     34413     18908     14777     18696     43773     34352 
average row accesses per activate:
dram[0]:  1.587664  1.625205  1.653565  1.638807  1.626129  1.618937  1.611082  1.625465  1.606241  1.597628  1.586541  1.587717  1.571812  1.573897  1.576267  1.542298 
dram[1]:  1.619559  1.637871  1.695950  1.682841  1.655049  1.678172  1.653433  1.646266  1.631178  1.640205  1.612875  1.613152  1.604763  1.599454  1.586400  1.598582 
dram[2]:  1.607383  1.604622  1.634628  1.679175  1.669793  1.623297  1.611032  1.621483  1.620522  1.616813  1.610263  1.588119  1.586801  1.592684  1.569553  1.582498 
dram[3]:  1.591681  1.605878  1.648326  1.626202  1.625643  1.631536  1.625643  1.619554  1.590186  1.590540  1.584145  1.603316  1.593795  1.561340  1.554739  1.566664 
dram[4]:  1.628640  1.649638  1.672823  1.688193  1.667703  1.680022  1.665326  1.642985  1.620189  1.636671  1.630798  1.613924  1.611904  1.610890  1.600926  1.580786 
dram[5]:  1.568358  1.658749  1.660933  1.636810  1.628757  1.635003  1.612746  1.646133  1.626661  1.603227  1.582803  1.596190  1.570745  1.592132  1.585323  1.553674 
average row locality = 3263250/2020969 = 1.614696
number of total memory accesses made:
dram[0]:         0         0         0         0         0         0         0         0         0         0         0         0         0         0         0         0 
dram[1]:         0         0         0         0         0         0         0         0         0         0         0         0         0         0         0         0 
dram[2]:         0         0         0         0         0         0         0         0         0         0         0         0         0         0         0         0 
dram[3]:         0         0         0         0         0         0         0         0         0         0         0         0         0         0         0         0 
dram[4]:         0         0         0         0         0         0         0         0         0         0         0         0         0         0         0         0 
dram[5]:         0         0         0         0         0         0         0         0         0         0         0         0         0         0         0         0 
total accesses: 0
min_bank_accesses = 0!
min_chip_accesses = 0!
number of total read accesses:
dram[0]:     19829     19840     19641     19235     19423     20725     20823     19881     20672     20964     20917     21493     22126     21114     21543     21886 
dram[1]:     19933     19930     19790     19415     19791     20891     20972     20251     20959     21382     21384     21657     22374     21642     21920     22538 
dram[2]:     21161     20147     20155     20201     20689     21441     21629     20498     21533     21890     21944     22400     23352     21969     22102     23339 
dram[3]:     20276     18970     19131     19921     20113     19995     20756     20103     20292     21283     21814     20896     21597     21328     21562     22294 
dram[4]:     20168     19661     19526     20173     20289     20477     20987     20486     20588     21721     22182     21051     21737     22047     22316     22293 
dram[5]:     20672     20139     19846     20880     20825     20765     21290     21016     21097     22295     22635     21409     22009     22782     22715     22924 
total reads: 2018723
bank skew: 23352/18970 = 1.23
chip skew: 344450/330112 = 1.04
number of total write accesses:
dram[0]:     12037     11871     11785     11373     11719     12753     12789     12022     12839     12976     12962     13486     14153     13134     13458     14048 
dram[1]:     12327     12074     11948     11694     12024     12852     13054     12378     13100     13246     13317     13742     14351     13514     13820     14434 
dram[2]:     12713     12069     12039     11972     12251     13106     13274     12470     13117     13557     13609     13852     14590     13688     13891     14690 
dram[3]:     12363     11410     11396     12029     12130     12174     12755     12165     12407     13421     13655     12849     13492     13429     13572     14156 
dram[4]:     12496     11758     11632     12269     12438     12438     12969     12492     12749     13636     13963     13119     13741     13900     13985     14416 
dram[5]:     12676     11986     11730     12488     12716     12437     13076     12761     12936     13877     14200     13198     13771     14251     14334     14518 
total reads: 1244527
bank skew: 14690/11373 = 1.29
chip skew: 210955/203403 = 1.04
average mf latency per bank:
dram[0]:        180       178       181       183       184       181       180       181       178       179       179       178       177       179       177       179
dram[1]:        181       180       181       184       183       181       179       181       178       177       178       178       177       178       177       177
dram[2]:        180       183       185       184       184       183       182       185       180       180       181       179       177       181       182       178
dram[3]:        178       182       181       181       181       182       178       181       178       178       176       177       176       179       178       176
dram[4]:        179       179       180       180       181       180       178       180       178       176       175       178       177       176       176       177
dram[5]:        181       180       183       181       184       183       181       181       180       178       178       180       180       177       178       178
maximum mf latency per bank:
dram[0]:       1406      1480      1515      1598      1552      1763      1510      1474      1444      1997      1587      1516      1904      1537      1473      1620
dram[1]:       1529      1610      1503      1634      1724      2171      1588      1645      1443      1368      1581      1605      1358      1658      1369      1430
dram[2]:       1411      1443      1448      1529      1769      1494      1594      1577      1688      1696      1770      1953      1554      1837      1513      1415
dram[3]:       1570      1667      1954      1692      1423      1553      1446      1514      1399      1663      1279      1700      1459      1485      1400      1536
dram[4]:       1401      1447      1437      1461      1572      1803      1494      1546      1280      1420      1496      1416      1596      1475      1430      1548
dram[5]:       1372      1500      1471      1565      1484      1448      1405      1487      1565      1779      1690      1448      1526      1664      1403      1390

Number of Memory Banks Accessed per Memory Operation per Warp (from 0):
0	0	0	0	0	0	0	0	0	0	0	0	0	0	0	0	0	0	0	0	0	0	0	0	0	0	0	0	0	0	0	0	0	0	0	0	0	0	0	0	0	0	0	0	0	0	0	0	0	0	0	0	0	0	0	0	0	0	0	0	0	0	0	0	0	0	0	0	0	0	0	0	0	0	0	0	0	0	0	0	0	0	0	0	0	0	0	0	0	0	0	0	0	0	0	0	
Average # of Memory Banks Accessed per Memory Operation per Warp=-nan

position of mrq chosen
0	0	0	0	0	0	0	0	0	0	0	0	0	0	0	0	

average position of mrq chosen = -nan
Memory Partition 0: 
Cache L2_bank_000:
MSHR contents

Cache L2_bank_001:
MSHR contents

In Dram Latency Queue (total = 0): 
DRAM[0]: 16 bks, busW=4 BL=8 CL=12, tRRD=2 tCCD=6, tRCD=12 tRAS=28 tRP=12 tRC=40
n_cmd=7047491 n_nop=5313627 n_act=333423 n_pre=333407 n_req=533517 n_rd=660224 n_write=406810 bw_util=0.3028
n_activity=5908835 dram_eff=0.3612
bk0: 39658a 6003851i bk1: 39680a 6026376i bk2: 39282a 6034672i bk3: 38470a 6054698i bk4: 38846a 6032024i bk5: 41450a 5950747i bk6: 41646a 5934904i bk7: 39762a 5990355i bk8: 41344a 5979951i bk9: 41928a 5949469i bk10: 41834a 5942284i bk11: 42986a 5898219i bk12: 44252a 5844870i bk13: 42228a 5893644i bk14: 43086a 5869911i bk15: 43772a 5817930i 
dram_util_bins: 0 0 0 0 0 0 0 0 0 0
dram_eff_bins: 0 0 0 0 0 0 0 0 0 0
mrqq: max=16 avg=1.38264
Memory Partition 1: 
Cache L2_bank_002:
MSHR contents

Cache L2_bank_003:
MSHR contents

In Dram Latency Queue (total = 0): 
DRAM[1]: 16 bks, busW=4 BL=8 CL=12, tRRD=2 tCCD=6, tRCD=12 tRAS=28 tRP=12 tRC=40
n_cmd=7047491 n_nop=5297375 n_act=332362 n_pre=332346 n_req=542704 n_rd=669658 n_write=415750 bw_util=0.308
n_activity=5997054 dram_eff=0.362
bk0: 39866a 6007175i bk1: 39860a 6010565i bk2: 39580a 6036862i bk3: 38830a 6048248i bk4: 39582a 6016093i bk5: 41782a 5958475i bk6: 41944a 5937891i bk7: 40502a 5969624i bk8: 41918a 5968707i bk9: 42764a 5940703i bk10: 42768a 5919578i bk11: 43314a 5890811i bk12: 44748a 5836036i bk13: 43284a 5867143i bk14: 43840a 5835370i bk15: 45076a 5791801i 
dram_util_bins: 0 0 0 0 0 0 0 0 0 0
dram_eff_bins: 0 0 0 0 0 0 0 0 0 0
mrqq: max=16 avg=1.48163
Memory Partition 2: 
Cache L2_bank_004:
MSHR contents

Cache L2_bank_005:
MSHR contents

In Dram Latency Queue (total = 0): 
DRAM[2]: 16 bks, busW=4 BL=8 CL=12, tRRD=2 tCCD=6, tRCD=12 tRAS=28 tRP=12 tRC=40
n_cmd=7047491 n_nop=5247857 n_act=344487 n_pre=344471 n_req=555338 n_rd=688900 n_write=421776 bw_util=0.3152
n_activity=5963530 dram_eff=0.3725
bk0: 42322a 5925685i bk1: 40294a 5971355i bk2: 40310a 5978113i bk3: 40402a 5989002i bk4: 41378a 5962268i bk5: 42882a 5886797i bk6: 43258a 5861656i bk7: 40996a 5929963i bk8: 43066a 5923774i bk9: 43780a 5885102i bk10: 43888a 5873195i bk11: 44800a 5829834i bk12: 46704a 5756725i bk13: 43938a 5826726i bk14: 44204a 5797567i bk15: 46678a 5715569i 
dram_util_bins: 0 0 0 0 0 0 0 0 0 0
dram_eff_bins: 0 0 0 0 0 0 0 0 0 0
mrqq: max=16 avg=1.60004
Memory Partition 3: 
Cache L2_bank_006:
MSHR contents
MSHR: tag=0x80007f80, atomic=0 1 entries : 0x7f75835cb220 :  mf: uid=23240100, sid08:w09, part=3, addr=0x80007f80, load , size=128, unknown  status = IN_PARTITION_DRAM (5339007), 

Cache L2_bank_007:
MSHR contents

In Dram Latency Queue (total = 0): 
DRAM[3]: 16 bks, busW=4 BL=8 CL=12, tRRD=2 tCCD=6, tRCD=12 tRAS=28 tRP=12 tRC=40
n_cmd=7047491 n_nop=5312759 n_act=333640 n_pre=333624 n_req=533734 n_rd=660662 n_write=406806 bw_util=0.3029
n_activity=5903571 dram_eff=0.3616
bk0: 40552a 5982385i bk1: 37940a 6053216i bk2: 38262a 6061887i bk3: 39842a 6012267i bk4: 40226a 5993940i bk5: 39990a 5989532i bk6: 41512a 5943751i bk7: 40206a 5976549i bk8: 40584a 5995937i bk9: 42566a 5920787i bk10: 43628a 5889646i bk11: 41792a 5937621i bk12: 43194a 5883717i bk13: 42656a 5872516i bk14: 43124a 5850389i bk15: 44588a 5799483i 
dram_util_bins: 0 0 0 0 0 0 0 0 0 0
dram_eff_bins: 0 0 0 0 0 0 0 0 0 0
mrqq: max=16 avg=1.3967
Memory Partition 4: 
Cache L2_bank_008:
MSHR contents

Cache L2_bank_009:
MSHR contents

In Dram Latency Queue (total = 0): 
DRAM[4]: 16 bks, busW=4 BL=8 CL=12, tRRD=2 tCCD=6, tRCD=12 tRAS=28 tRP=12 tRC=40
n_cmd=7047491 n_nop=5295381 n_act=332360 n_pre=332344 n_req=543703 n_rd=671404 n_write=416002 bw_util=0.3086
n_activity=5998701 dram_eff=0.3625
bk0: 40336a 5989300i bk1: 39322a 6035711i bk2: 39052a 6044990i bk3: 40346a 6009100i bk4: 40578a 5993812i bk5: 40954a 5981305i bk6: 41974a 5942004i bk7: 40972a 5957870i bk8: 41176a 5985978i bk9: 43442a 5915573i bk10: 44364a 5880073i bk11: 42102a 5927923i bk12: 43474a 5875348i bk13: 44094a 5853903i bk14: 44632a 5827723i bk15: 44586a 5799376i 
dram_util_bins: 0 0 0 0 0 0 0 0 0 0
dram_eff_bins: 0 0 0 0 0 0 0 0 0 0
mrqq: max=16 avg=1.48651
Memory Partition 5: 
Cache L2_bank_010:
MSHR contents

Cache L2_bank_011:
MSHR contents

In Dram Latency Queue (total = 0): 
DRAM[5]: 16 bks, busW=4 BL=8 CL=12, tRRD=2 tCCD=6, tRCD=12 tRAS=28 tRP=12 tRC=40
n_cmd=7047491 n_nop=5249599 n_act=344700 n_pre=344684 n_req=554254 n_rd=686598 n_write=421910 bw_util=0.3146
n_activity=5967899 dram_eff=0.3715
bk0: 41344a 5926470i bk1: 40278a 5998312i bk2: 39692a 6012691i bk3: 41760a 5942028i bk4: 41650a 5930025i bk5: 41530a 5936480i bk6: 42580a 5885966i bk7: 42032a 5911372i bk8: 42194a 5950447i bk9: 44590a 5860402i bk10: 45270a 5816500i bk11: 42818a 5889020i bk12: 44018a 5830311i bk13: 45564a 5785052i bk14: 45430a 5773754i bk15: 45848a 5731550i 
dram_util_bins: 0 0 0 0 0 0 0 0 0 0
dram_eff_bins: 0 0 0 0 0 0 0 0 0 0
mrqq: max=16 avg=1.56956

========= L2 cache stats =========
L2_cache_bank[0]: Access = 239941, Miss = 164974, Miss_rate = 0.688, Pending_hits = 4, Reservation_fails = 111
L2_cache_bank[1]: Access = 239593, Miss = 165138, Miss_rate = 0.689, Pending_hits = 13, Reservation_fails = 479
L2_cache_bank[2]: Access = 242478, Miss = 167123, Miss_rate = 0.689, Pending_hits = 6, Reservation_fails = 116
L2_cache_bank[3]: Access = 242172, Miss = 167706, Miss_rate = 0.693, Pending_hits = 13, Reservation_fails = 444
L2_cache_bank[4]: Access = 248989, Miss = 172565, Miss_rate = 0.693, Pending_hits = 4, Reservation_fails = 441
L2_cache_bank[5]: Access = 248425, Miss = 171885, Miss_rate = 0.692, Pending_hits = 4, Reservation_fails = 216
L2_cache_bank[6]: Access = 239975, Miss = 165541, Miss_rate = 0.690, Pending_hits = 2, Reservation_fails = 115
L2_cache_bank[7]: Access = 239771, Miss = 164790, Miss_rate = 0.687, Pending_hits = 8, Reservation_fails = 568
L2_cache_bank[8]: Access = 242483, Miss = 167793, Miss_rate = 0.692, Pending_hits = 0, Reservation_fails = 20
L2_cache_bank[9]: Access = 242423, Miss = 167909, Miss_rate = 0.693, Pending_hits = 1, Reservation_fails = 64
L2_cache_bank[10]: Access = 248723, Miss = 171089, Miss_rate = 0.688, Pending_hits = 5, Reservation_fails = 156
L2_cache_bank[11]: Access = 248778, Miss = 172210, Miss_rate = 0.692, Pending_hits = 0, Reservation_fails = 40
L2_total_cache_accesses = 2923751
L2_total_cache_misses = 2018723
L2_total_cache_miss_rate = 0.6905
L2_total_cache_pending_hits = 60
L2_total_cache_reservation_fails = 2770
L2_total_cache_breakdown:
	L2_cache_stats_breakdown[LOCAL_ACC_R][HIT] = 99963
	L2_cache_stats_breakdown[LOCAL_ACC_R][HIT_RESERVED] = 7
	L2_cache_stats_breakdown[LOCAL_ACC_R][MISS] = 1497072
	L2_cache_stats_breakdown[LOCAL_ACC_R][RESERVATION_FAIL] = 299
	L2_cache_stats_breakdown[CONST_ACC_R][HIT] = 130
	L2_cache_stats_breakdown[CONST_ACC_R][HIT_RESERVED] = 12
	L2_cache_stats_breakdown[CONST_ACC_R][MISS] = 8
	L2_cache_stats_breakdown[CONST_ACC_R][RESERVATION_FAIL] = 308
	L2_cache_stats_breakdown[GLOBAL_ACC_W][MISS] = 384
	L2_cache_stats_breakdown[LOCAL_ACC_W][HIT] = 3179
	L2_cache_stats_breakdown[LOCAL_ACC_W][MISS] = 386422
	L2_cache_stats_breakdown[LOCAL_ACC_W][RESERVATION_FAIL] = 730
	L2_cache_stats_breakdown[L1_WRBK_ACC][HIT] = 801208
	L2_cache_stats_breakdown[L1_WRBK_ACC][MISS] = 134756
	L2_cache_stats_breakdown[L1_WRBK_ACC][RESERVATION_FAIL] = 20
	L2_cache_stats_breakdown[INST_ACC_R][HIT] = 488
	L2_cache_stats_breakdown[INST_ACC_R][HIT_RESERVED] = 41
	L2_cache_stats_breakdown[INST_ACC_R][MISS] = 81
	L2_cache_stats_breakdown[INST_ACC_R][RESERVATION_FAIL] = 1413
L2_cache_data_port_util = 0.094
L2_cache_fill_port_util = 0.126

icnt_total_pkts_mem_to_simt=8378695
icnt_total_pkts_simt_to_mem=8227547
LD_mem_lat_dist  0 0 0 0 0 0 0 0 0 0 0 0 0 0 0 0 0 0 0 0 0 0 0 0 0 0 0
ST_mem_lat_dist  0 0 0 0 0 0 0 0 0 0 0 0 0 0 0 0 0 0 0 0 0 0 0 0 0 0 0
----------------------------Interconnect-DETAILS--------------------------------
Class 0:
Packet latency average = 10.2966
	minimum = 6
	maximum = 489
Network latency average = 9.82695
	minimum = 6
	maximum = 466
Slowest packet = 1008722
Flit latency average = 7.69556
	minimum = 6
	maximum = 462
Slowest flit = 3661394
Fragmentation average = 0.0208573
	minimum = 0
	maximum = 359
Injected packet rate average = 0.0380992
	minimum = 0.0353133 (at node 16)
	maximum = 0.0466925 (at node 6)
Accepted packet rate average = 0.0380992
	minimum = 0.0269145 (at node 0)
	maximum = 0.0514324 (at node 19)
Injected flit rate average = 0.12663
	minimum = 0.102593 (at node 0)
	maximum = 0.152963 (at node 19)
Accepted flit rate average= 0.12663
	minimum = 0.11101 (at node 0)
	maximum = 0.141325 (at node 19)
Injected packet length average = 3.3237
Accepted packet length average = 3.3237
Total in-flight flits = 0 (0 measured)
====== Overall Traffic Statistics ======
====== Traffic class 0 ======
Packet latency average = 10.7318 (2 samples)
	minimum = 6 (2 samples)
	maximum = 476 (2 samples)
Network latency average = 10.1737 (2 samples)
	minimum = 6 (2 samples)
	maximum = 451 (2 samples)
Flit latency average = 7.91828 (2 samples)
	minimum = 6 (2 samples)
	maximum = 447 (2 samples)
Fragmentation average = 0.0482096 (2 samples)
	minimum = 0 (2 samples)
	maximum = 375.5 (2 samples)
Injected packet rate average = 0.0311365 (2 samples)
	minimum = 0.026983 (2 samples)
	maximum = 0.0399563 (2 samples)
Accepted packet rate average = 0.0311365 (2 samples)
	minimum = 0.0205581 (2 samples)
	maximum = 0.0440016 (2 samples)
Injected flit rate average = 0.106867 (2 samples)
	minimum = 0.0916453 (2 samples)
	maximum = 0.127026 (2 samples)
Accepted flit rate average = 0.106867 (2 samples)
	minimum = 0.0885031 (2 samples)
	maximum = 0.126296 (2 samples)
Injected packet size average = 3.43222 (2 samples)
Accepted packet size average = 3.43222 (2 samples)
Hops average = 1 (2 samples)
----------------------------END-of-Interconnect-DETAILS-------------------------


gpgpu_simulation_time = 0 days, 4 hrs, 11 min, 41 sec (15101 sec)
gpgpu_simulation_rate = 66162 (inst/sec)
gpgpu_simulation_rate = 353 (cycle/sec)
GPGPU-Sim: synchronize waiting for inactive GPU simulation
GPGPU-Sim API: Stream Manager State
GPGPU-Sim: detected inactive GPU simulation thread
v  =    224.32334900
Lb =     21.34812355
Time (Greeks)   : 9135857.000000 msec

Press ENTER to exit...
