

        *** GPGPU-Sim Simulator Version 3.2.2  [build 0] ***


GPGPU-Sim PTX: simulation mode 0 (can change with PTX_SIM_MODE_FUNC environment variable:
               1=functional simulation only, 0=detailed performance simulator)
GPGPU-Sim: Configuration options:

-network_mode                           1 # Interconnection network mode
-inter_config_file   config_fermi_islip.icnt # Interconnection network config file
-gpgpu_ptx_use_cuobjdump                    1 # Use cuobjdump to extract ptx and sass from binaries
-gpgpu_experimental_lib_support                    0 # Try to extract code from cuda libraries [Broken because of unknown cudaGetExportTable]
-gpgpu_ptx_convert_to_ptxplus                    0 # Convert SASS (native ISA) to ptxplus and run ptxplus
-gpgpu_ptx_force_max_capability                   20 # Force maximum compute capability
-gpgpu_ptx_inst_debug_to_file                    0 # Dump executed instructions' debug information to file
-gpgpu_ptx_inst_debug_file       inst_debug.txt # Executed instructions' debug output file
-gpgpu_ptx_inst_debug_thread_uid                    1 # Thread UID for executed instructions' debug output
-gpgpu_simd_model                       1 # 1 = post-dominator
-gpgpu_shader_core_pipeline              1536:32 # shader core pipeline config, i.e., {<nthread>:<warpsize>}
-gpgpu_tex_cache:l1  4:128:24,L:R:m:N:L,F:128:4,128:2 # per-shader L1 texture cache  (READ-ONLY) config  {<nsets>:<bsize>:<assoc>,<rep>:<wr>:<alloc>:<wr_alloc>,<mshr>:<N>:<merge>,<mq>:<rf>}
-gpgpu_const_cache:l1 64:64:2,L:R:f:N:L,A:2:32,4 # per-shader L1 constant memory cache  (READ-ONLY) config  {<nsets>:<bsize>:<assoc>,<rep>:<wr>:<alloc>:<wr_alloc>,<mshr>:<N>:<merge>,<mq>} 
-gpgpu_cache:il1     4:128:4,L:R:f:N:L,A:2:32,4 # shader L1 instruction cache config  {<nsets>:<bsize>:<assoc>,<rep>:<wr>:<alloc>:<wr_alloc>,<mshr>:<N>:<merge>,<mq>} 
-gpgpu_cache:dl1     32:128:4,L:L:m:N:H,A:32:8,8 # per-shader L1 data cache config  {<nsets>:<bsize>:<assoc>,<rep>:<wr>:<alloc>:<wr_alloc>,<mshr>:<N>:<merge>,<mq> | none}
-gpgpu_cache:dl1PrefL1                 none # per-shader L1 data cache config  {<nsets>:<bsize>:<assoc>,<rep>:<wr>:<alloc>:<wr_alloc>,<mshr>:<N>:<merge>,<mq> | none}
-gpgpu_cache:dl1PreShared                 none # per-shader L1 data cache config  {<nsets>:<bsize>:<assoc>,<rep>:<wr>:<alloc>:<wr_alloc>,<mshr>:<N>:<merge>,<mq> | none}
-gmem_skip_L1D                          0 # global memory access skip L1D cache (implements -Xptxas -dlcm=cg, default=no skip)
-gpgpu_perfect_mem                      0 # enable perfect memory mode (no cache miss)
-n_regfile_gating_group                    4 # group of lanes that should be read/written together)
-gpgpu_clock_gated_reg_file                    0 # enable clock gated reg file for power calculations
-gpgpu_clock_gated_lanes                    0 # enable clock gated lanes for power calculations
-gpgpu_shader_registers                32768 # Number of registers per shader core. Limits number of concurrent CTAs. (default 8192)
-gpgpu_shader_cta                       8 # Maximum number of concurrent CTAs in shader (default 8)
-gpgpu_num_cta_barriers                   16 # Maximum number of named barriers per CTA (default 16)
-gpgpu_n_clusters                      15 # number of processing clusters
-gpgpu_n_cores_per_cluster                    1 # number of simd cores per cluster
-gpgpu_n_cluster_ejection_buffer_size                    8 # number of packets in ejection buffer
-gpgpu_n_ldst_response_buffer_size                    2 # number of response packets in ld/st unit ejection buffer
-gpgpu_shmem_size                   16384 # Size of shared memory per shader core (default 16kB)
-gpgpu_shmem_size                   49152 # Size of shared memory per shader core (default 16kB)
-gpgpu_shmem_size_PrefL1                16384 # Size of shared memory per shader core (default 16kB)
-gpgpu_shmem_size_PrefShared                16384 # Size of shared memory per shader core (default 16kB)
-gpgpu_shmem_num_banks                   32 # Number of banks in the shared memory in each shader core (default 16)
-gpgpu_shmem_limited_broadcast                    0 # Limit shared memory to do one broadcast per cycle (default on)
-gpgpu_shmem_warp_parts                    1 # Number of portions a warp is divided into for shared memory bank conflict check 
-gpgpu_warpdistro_shader                   -1 # Specify which shader core to collect the warp size distribution from
-gpgpu_warp_issue_shader                    0 # Specify which shader core to collect the warp issue distribution from
-gpgpu_local_mem_map                    1 # Mapping from local memory space address to simulated GPU physical address space (default = enabled)
-gpgpu_num_reg_banks                   16 # Number of register banks (default = 8)
-gpgpu_reg_bank_use_warp_id                    0 # Use warp ID in mapping registers to banks (default = off)
-gpgpu_operand_collector_num_units_sp                    6 # number of collector units (default = 4)
-gpgpu_operand_collector_num_units_sfu                    8 # number of collector units (default = 4)
-gpgpu_operand_collector_num_units_mem                    2 # number of collector units (default = 2)
-gpgpu_operand_collector_num_units_gen                    0 # number of collector units (default = 0)
-gpgpu_operand_collector_num_in_ports_sp                    2 # number of collector unit in ports (default = 1)
-gpgpu_operand_collector_num_in_ports_sfu                    1 # number of collector unit in ports (default = 1)
-gpgpu_operand_collector_num_in_ports_mem                    1 # number of collector unit in ports (default = 1)
-gpgpu_operand_collector_num_in_ports_gen                    0 # number of collector unit in ports (default = 0)
-gpgpu_operand_collector_num_out_ports_sp                    2 # number of collector unit in ports (default = 1)
-gpgpu_operand_collector_num_out_ports_sfu                    1 # number of collector unit in ports (default = 1)
-gpgpu_operand_collector_num_out_ports_mem                    1 # number of collector unit in ports (default = 1)
-gpgpu_operand_collector_num_out_ports_gen                    0 # number of collector unit in ports (default = 0)
-gpgpu_coalesce_arch                   13 # Coalescing arch (default = 13, anything else is off for now)
-gpgpu_num_sched_per_core                    1 # Number of warp schedulers per core
-gpgpu_max_insn_issue_per_warp                    1 # Max number of instructions that can be issued per warp in one cycle by scheduler
-gpgpu_simt_core_sim_order                    1 # Select the simulation order of cores in a cluster (0=Fix, 1=Round-Robin)
-gpgpu_pipeline_widths        2,1,1,2,1,1,2 # Pipeline widths ID_OC_SP,ID_OC_SFU,ID_OC_MEM,OC_EX_SP,OC_EX_SFU,OC_EX_MEM,EX_WB
-gpgpu_num_sp_units                     2 # Number of SP units (default=1)
-gpgpu_num_sfu_units                    1 # Number of SF units (default=1)
-gpgpu_num_mem_units                    1 # Number if ldst units (default=1) WARNING: not hooked up to anything
-gpgpu_scheduler                      gto # Scheduler configuration: < lrr | gto | two_level_active > If two_level_active:<num_active_warps>:<inner_prioritization>:<outer_prioritization>For complete list of prioritization values see shader.h enum scheduler_prioritization_typeDefault: gto
-gpgpu_dram_scheduler                    1 # 0 = fifo, 1 = FR-FCFS (defaul)
-gpgpu_dram_partition_queues              8:8:8:8 # i2$:$2d:d2$:$2i
-l2_ideal                               0 # Use a ideal L2 cache that always hit
-gpgpu_cache:dl2     64:128:8,L:B:m:W:L,A:32:4,4:0,32 # unified banked L2 data cache config  {<nsets>:<bsize>:<assoc>,<rep>:<wr>:<alloc>:<wr_alloc>,<mshr>:<N>:<merge>,<mq>}
-gpgpu_cache:dl2_texture_only                    0 # L2 cache used for texture only
-gpgpu_n_mem                            6 # number of memory modules (e.g. memory controllers) in gpu
-gpgpu_n_sub_partition_per_mchannel                    2 # number of memory subpartition in each memory module
-gpgpu_n_mem_per_ctrlr                    2 # number of memory chips per memory controller
-gpgpu_memlatency_stat                   14 # track and display latency statistics 0x2 enables MC, 0x4 enables queue logs
-gpgpu_frfcfs_dram_sched_queue_size                   16 # 0 = unlimited (default); # entries per chip
-gpgpu_dram_return_queue_size                  116 # 0 = unlimited (default); # entries per chip
-gpgpu_dram_buswidth                    4 # default = 4 bytes (8 bytes per cycle at DDR)
-gpgpu_dram_burst_length                    8 # Burst length of each DRAM request (default = 4 data bus cycle)
-dram_data_command_freq_ratio                    4 # Frequency ratio between DRAM data bus and command bus (default = 2 times, i.e. DDR)
-gpgpu_dram_timing_opt nbk=16:CCD=2:RRD=6:RCD=12:RAS=28:RP=12:RC=40: CL=12:WL=4:CDLR=5:WR=12:nbkgrp=4:CCDL=3:RTPL=2 # DRAM timing parameters = {nbk:tCCD:tRRD:tRCD:tRAS:tRP:tRC:CL:WL:tCDLR:tWR:nbkgrp:tCCDL:tRTPL}
-rop_latency                          120 # ROP queue latency (default 85)
-dram_latency                         100 # DRAM latency (default 30)
-gpgpu_mem_addr_mapping dramid@8;00000000.00000000.00000000.00000000.0000RRRR.RRRRRRRR.BBBCCCCB.CCSSSSSS # mapping memory address to dram model {dramid@<start bit>;<memory address map>}
-gpgpu_mem_addr_test                    0 # run sweep test to check address mapping for aliased address
-gpgpu_mem_address_mask                    1 # 0 = old addressing mask, 1 = new addressing mask, 2 = new add. mask + flipped bank sel and chip sel bits
-gpuwattch_xml_file  gpuwattch_gtx480.xml # GPUWattch XML file
-power_simulation_enabled                    1 # Turn on power simulator (1=On, 0=Off)
-power_per_cycle_dump                    0 # Dump detailed power output each cycle
-power_trace_enabled                    0 # produce a file for the power trace (1=On, 0=Off)
-power_trace_zlevel                     6 # Compression level of the power trace output log (0=no comp, 9=highest)
-steady_power_levels_enabled                    0 # produce a file for the steady power levels (1=On, 0=Off)
-steady_state_definition                  8:4 # allowed deviation:number of samples
-gpgpu_max_cycle                        0 # terminates gpu simulation early (0 = no limit)
-gpgpu_max_insn                         0 # terminates gpu simulation early (0 = no limit)
-gpgpu_max_cta                          0 # terminates gpu simulation early (0 = no limit)
-gpgpu_runtime_stat                   500 # display runtime statistics such as dram utilization {<freq>:<flag>}
-liveness_message_freq                    1 # Minimum number of seconds between simulation liveness messages (0 = always print)
-gpgpu_flush_l1_cache                    0 # Flush L1 cache at the end of each kernel call
-gpgpu_flush_l2_cache                    0 # Flush L2 cache at the end of each kernel call
-gpgpu_deadlock_detect                    1 # Stop the simulation at deadlock (1=on (default), 0=off)
-gpgpu_ptx_instruction_classification                    0 # if enabled will classify ptx instruction types per kernel (Max 255 kernels now)
-gpgpu_ptx_sim_mode                     0 # Select between Performance (default) or Functional simulation (1)
-gpgpu_clock_domains 700.0:700.0:700.0:924.0 # Clock Domain Frequencies in MhZ {<Core Clock>:<ICNT Clock>:<L2 Clock>:<DRAM Clock>}
-gpgpu_max_concurrent_kernel                    8 # maximum kernels that can run concurrently on GPU
-gpgpu_cflog_interval                    0 # Interval between each snapshot in control flow logger
-visualizer_enabled                     0 # Turn on visualizer output (1=On, 0=Off)
-visualizer_outputfile                 NULL # Specifies the output log file for visualizer
-visualizer_zlevel                      6 # Compression level of the visualizer output log (0=no comp, 9=highest)
-trace_enabled                          0 # Turn on traces
-trace_components                    none # comma seperated list of traces to enable. Complete list found in trace_streams.tup. Default none
-trace_sampling_core                    0 # The core which is printed using CORE_DPRINTF. Default 0
-trace_sampling_memory_partition                   -1 # The memory partition which is printed using MEMPART_DPRINTF. Default -1 (i.e. all)
-enable_ptx_file_line_stats                    1 # Turn on PTX source line statistic profiling. (1 = On)
-ptx_line_stats_filename gpgpu_inst_stats.txt # Output file for PTX source line statistics.
-save_embedded_ptx                      0 # saves ptx files embedded in binary as <n>.ptx
-keep                                   0 # keep intermediate files created by GPGPU-Sim when interfacing with external programs
-gpgpu_ptx_save_converted_ptxplus                    0 # Saved converted ptxplus to a file
-ptx_opcode_latency_int         4,13,4,5,145 # Opcode latencies for integers <ADD,MAX,MUL,MAD,DIV>Default 1,1,19,25,145
-ptx_opcode_latency_fp          4,13,4,5,39 # Opcode latencies for single precision floating points <ADD,MAX,MUL,MAD,DIV>Default 1,1,1,1,30
-ptx_opcode_latency_dp         8,19,8,8,330 # Opcode latencies for double precision floating points <ADD,MAX,MUL,MAD,DIV>Default 8,8,8,8,335
-ptx_opcode_initiation_int            1,2,2,1,8 # Opcode initiation intervals for integers <ADD,MAX,MUL,MAD,DIV>Default 1,1,4,4,32
-ptx_opcode_initiation_fp            1,2,1,1,4 # Opcode initiation intervals for single precision floating points <ADD,MAX,MUL,MAD,DIV>Default 1,1,1,1,5
-ptx_opcode_initiation_dp         8,16,8,8,130 # Opcode initiation intervals for double precision floating points <ADD,MAX,MUL,MAD,DIV>Default 8,8,8,8,130
DRAM Timing Options:
nbk                                    16 # number of banks
CCD                                     2 # column to column delay
RRD                                     6 # minimal delay between activation of rows in different banks
RCD                                    12 # row to column delay
RAS                                    28 # time needed to activate row
RP                                     12 # time needed to precharge (deactivate) row
RC                                     40 # row cycle time
CDLR                                    5 # switching from write to read (changes tWTR)
WR                                     12 # last data-in to row precharge
CL                                     12 # CAS latency
WL                                      4 # Write latency
nbkgrp                                  4 # number of bank groups
CCDL                                    3 # column to column delay between accesses to different bank groups
RTPL                                    2 # read to precharge delay between accesses to different bank groups
Total number of memory sub partition = 12
addr_dec_mask[CHIP]  = 0000000000000000 	high:64 low:0
addr_dec_mask[BK]    = 000000000000e100 	high:16 low:8
addr_dec_mask[ROW]   = 000000000fff0000 	high:28 low:16
addr_dec_mask[COL]   = 0000000000001eff 	high:13 low:0
addr_dec_mask[BURST] = 000000000000003f 	high:6 low:0
sub_partition_id_mask = 0000000000000100
GPGPU-Sim uArch: clock freqs: 700000000.000000:700000000.000000:700000000.000000:924000000.000000
GPGPU-Sim uArch: clock periods: 0.00000000142857142857:0.00000000142857142857:0.00000000142857142857:0.00000000108225108225
*** Initializing Memory Statistics ***
GPGPU-Sim uArch: interconnect node map (shaderID+MemID to icntID)
GPGPU-Sim uArch: Memory nodes ID start from index: 15
GPGPU-Sim uArch:    0   1   2   3   4
GPGPU-Sim uArch:    5   6   7   8   9
GPGPU-Sim uArch:   10  11  12  13  14
GPGPU-Sim uArch:   15  16  17  18  19
GPGPU-Sim uArch:   20  21  22  23  24
GPGPU-Sim uArch:   25  26
GPGPU-Sim uArch: interconnect node reverse map (icntID to shaderID+MemID)
GPGPU-Sim uArch: Memory nodes start from ID: 15
GPGPU-Sim uArch:    0   1   2   3   4
GPGPU-Sim uArch:    5   6   7   8   9
GPGPU-Sim uArch:   10  11  12  13  14
GPGPU-Sim uArch:   15  16  17  18  19
GPGPU-Sim uArch:   20  21  22  23  24
GPGPU-Sim uArch:   25  26
36731beff5187ff21689d20a58a6b791  /home/kishore/project_source/gpu_class_proj/gpgpusim-benchmarks-master/bin/release/LIB
GPGPU-Sim uArch: performance model initialization complete.
GPGPU-Sim PTX: __cudaRegisterFatBinary, fat_cubin_handle = 1, filename=libor.cu
self exe links to: /home/kishore/project_source/gpu_class_proj/gpgpusim-benchmarks-master/bin/release/LIB
Running md5sum using "md5sum /home/kishore/project_source/gpu_class_proj/gpgpusim-benchmarks-master/bin/release/LIB "
Running cuobjdump using "$CUDA_INSTALL_PATH/bin/cuobjdump -ptx -elf -sass /home/kishore/project_source/gpu_class_proj/gpgpusim-benchmarks-master/bin/release/LIB > _cuobjdump_complete_output_1cpEfM"
Parsing file _cuobjdump_complete_output_1cpEfM
######### cuobjdump parser ########
## Adding new section PTX
Adding ptx filename: _cuobjdump_1.ptx
Adding arch: sm_10
Adding identifier: libor.cu
## Adding new section ELF
Adding arch: sm_10
Adding identifier: libor.cu
## Adding new section ELF
Adding arch: sm_20
Adding identifier: libor.cu
## Adding new section PTX
Adding ptx filename: _cuobjdump_2.ptx
Adding arch: sm_20
Adding identifier: libor.cu
Done parsing!!!
GPGPU-Sim PTX: __cudaRegisterFunction _Z29Pathcalc_Portfolio_KernelGPU2Pf : hostFun 0x0x403b30, fat_cubin_handle = 1
GPGPU-Sim PTX: allocating stack frame region for .param "__cudaparmf1__Z9path_calcPfS_" from 0x0 to 0x8
GPGPU-Sim PTX: allocating stack frame region for .param "__cudaparmf2__Z9path_calcPfS_" from 0x8 to 0x10
GPGPU-Sim PTX: allocating stack frame region for .param "__cudaparmf1__Z12path_calc_b1PfS_S_" from 0x0 to 0x8
GPGPU-Sim PTX: allocating stack frame region for .param "__cudaparmf2__Z12path_calc_b1PfS_S_" from 0x8 to 0x10
GPGPU-Sim PTX: allocating stack frame region for .param "__cudaparmf3__Z12path_calc_b1PfS_S_" from 0x10 to 0x18
GPGPU-Sim PTX: allocating stack frame region for .param "__cudaparmf1__Z12path_calc_b2PfS_S_" from 0x0 to 0x8
GPGPU-Sim PTX: allocating stack frame region for .param "__cudaparmf2__Z12path_calc_b2PfS_S_" from 0x8 to 0x10
GPGPU-Sim PTX: allocating stack frame region for .param "__cudaparmf3__Z12path_calc_b2PfS_S_" from 0x10 to 0x18
GPGPU-Sim PTX: allocating stack frame region for .param "__cudaretf__Z11portfolio_bPfS_" from 0x0 to 0x4
GPGPU-Sim PTX: allocating stack frame region for .param "__cudaparmf1__Z11portfolio_bPfS_" from 0x4 to 0xc
GPGPU-Sim PTX: allocating stack frame region for .param "__cudaparmf2__Z11portfolio_bPfS_" from 0xc to 0x14
GPGPU-Sim PTX: allocating stack frame region for .param "__cudaretf__Z9portfolioPf" from 0x0 to 0x4
GPGPU-Sim PTX: allocating stack frame region for .param "__cudaparmf1__Z9portfolioPf" from 0x4 to 0xc
GPGPU-Sim PTX: allocating constant region for "N" from 0x100 to 0x104 (global memory space) 1
GPGPU-Sim PTX: allocating constant region for "Nmat" from 0x104 to 0x108 (global memory space) 2
GPGPU-Sim PTX: allocating constant region for "delta" from 0x108 to 0x10c (global memory space) 3
GPGPU-Sim PTX: allocating constant region for "lambda" from 0x180 to 0x2c0 (global memory space) 4
GPGPU-Sim PTX: instruction assembly for function '_Z9path_calcPfS_'...   done.
GPGPU-Sim PTX: finding reconvergence points for '_Z9path_calcPfS_'...
GPGPU-Sim PTX: Finding dominators for '_Z9path_calcPfS_'...
GPGPU-Sim PTX: Finding immediate dominators for '_Z9path_calcPfS_'...
GPGPU-Sim PTX: Finding postdominators for '_Z9path_calcPfS_'...
GPGPU-Sim PTX: Finding immediate postdominators for '_Z9path_calcPfS_'...
GPGPU-Sim PTX: pre-decoding instructions for '_Z9path_calcPfS_'...
GPGPU-Sim PTX: reconvergence points for _Z9path_calcPfS_...
GPGPU-Sim PTX:  1 (potential) branch divergence @  PC=0x038 (_1.ptx:81) @%p1 bra $Lt_0_2306;
GPGPU-Sim PTX:    immediate post dominator      @  PC=0x218 (_1.ptx:153) ret;
GPGPU-Sim PTX:  2 (potential) branch divergence @  PC=0x0a8 (_1.ptx:99) @%p2 bra $Lt_0_3074;
GPGPU-Sim PTX:    immediate post dominator      @  PC=0x1f8 (_1.ptx:147) mov.s32 %r5, %r7;
GPGPU-Sim PTX:  3 (potential) branch divergence @  PC=0x1f0 (_1.ptx:145) @%p3 bra $Lt_0_3586;
GPGPU-Sim PTX:    immediate post dominator      @  PC=0x1f8 (_1.ptx:147) mov.s32 %r5, %r7;
GPGPU-Sim PTX:  4 (potential) branch divergence @  PC=0x210 (_1.ptx:150) @%p4 bra $Lt_0_2818;
GPGPU-Sim PTX:    immediate post dominator      @  PC=0x218 (_1.ptx:153) ret;
GPGPU-Sim PTX: ... end of reconvergence points for _Z9path_calcPfS_
GPGPU-Sim PTX: ... done pre-decoding instructions for '_Z9path_calcPfS_'.
GPGPU-Sim PTX: instruction assembly for function '_Z12path_calc_b1PfS_S_'...   done.
GPGPU-Sim PTX: finding reconvergence points for '_Z12path_calc_b1PfS_S_'...
GPGPU-Sim PTX: Finding dominators for '_Z12path_calc_b1PfS_S_'...
GPGPU-Sim PTX: Finding immediate dominators for '_Z12path_calc_b1PfS_S_'...
GPGPU-Sim PTX: Finding postdominators for '_Z12path_calc_b1PfS_S_'...
GPGPU-Sim PTX: Finding immediate postdominators for '_Z12path_calc_b1PfS_S_'...
GPGPU-Sim PTX: pre-decoding instructions for '_Z12path_calc_b1PfS_S_'...
GPGPU-Sim PTX: reconvergence points for _Z12path_calc_b1PfS_S_...
GPGPU-Sim PTX:  1 (potential) branch divergence @  PC=0x268 (_1.ptx:175) @%p1 bra $Lt_1_3330;
GPGPU-Sim PTX:    immediate post dominator      @  PC=0x2d0 (_1.ptx:192) ld.const.s32 %r6, [Nmat];
GPGPU-Sim PTX:  2 (potential) branch divergence @  PC=0x2c8 (_1.ptx:190) @%p2 bra $Lt_1_3842;
GPGPU-Sim PTX:    immediate post dominator      @  PC=0x2d0 (_1.ptx:192) ld.const.s32 %r6, [Nmat];
GPGPU-Sim PTX:  3 (potential) branch divergence @  PC=0x2e8 (_1.ptx:195) @%p3 bra $Lt_1_4354;
GPGPU-Sim PTX:    immediate post dominator      @  PC=0x4f8 (_1.ptx:274) ret;
GPGPU-Sim PTX:  4 (potential) branch divergence @  PC=0x350 (_1.ptx:212) @%p4 bra $Lt_1_5122;
GPGPU-Sim PTX:    immediate post dominator      @  PC=0x4d8 (_1.ptx:268) mov.s32 %r9, %r11;
GPGPU-Sim PTX:  5 (potential) branch divergence @  PC=0x4d0 (_1.ptx:266) @%p5 bra $Lt_1_5634;
GPGPU-Sim PTX:    immediate post dominator      @  PC=0x4d8 (_1.ptx:268) mov.s32 %r9, %r11;
GPGPU-Sim PTX:  6 (potential) branch divergence @  PC=0x4f0 (_1.ptx:271) @%p6 bra $Lt_1_4866;
GPGPU-Sim PTX:    immediate post dominator      @  PC=0x4f8 (_1.ptx:274) ret;
GPGPU-Sim PTX: ... end of reconvergence points for _Z12path_calc_b1PfS_S_
GPGPU-Sim PTX: ... done pre-decoding instructions for '_Z12path_calc_b1PfS_S_'.
GPGPU-Sim PTX: instruction assembly for function '_Z12path_calc_b2PfS_S_'...   done.
GPGPU-Sim PTX: finding reconvergence points for '_Z12path_calc_b2PfS_S_'...
GPGPU-Sim PTX: Finding dominators for '_Z12path_calc_b2PfS_S_'...
GPGPU-Sim PTX: Finding immediate dominators for '_Z12path_calc_b2PfS_S_'...
GPGPU-Sim PTX: Finding postdominators for '_Z12path_calc_b2PfS_S_'...
GPGPU-Sim PTX: Finding immediate postdominators for '_Z12path_calc_b2PfS_S_'...
GPGPU-Sim PTX: pre-decoding instructions for '_Z12path_calc_b2PfS_S_'...
GPGPU-Sim PTX: reconvergence points for _Z12path_calc_b2PfS_S_...
GPGPU-Sim PTX:  1 (potential) branch divergence @  PC=0x548 (_1.ptx:297) @%p1 bra $Lt_2_2306;
GPGPU-Sim PTX:    immediate post dominator      @  PC=0x730 (_1.ptx:368) ret;
GPGPU-Sim PTX:  2 (potential) branch divergence @  PC=0x580 (_1.ptx:306) @%p2 bra $Lt_2_3074;
GPGPU-Sim PTX:    immediate post dominator      @  PC=0x710 (_1.ptx:362) sub.s32 %r3, %r3, 1;
GPGPU-Sim PTX:  3 (potential) branch divergence @  PC=0x708 (_1.ptx:360) @%p3 bra $Lt_2_3586;
GPGPU-Sim PTX:    immediate post dominator      @  PC=0x710 (_1.ptx:362) sub.s32 %r3, %r3, 1;
GPGPU-Sim PTX:  4 (potential) branch divergence @  PC=0x728 (_1.ptx:365) @%p4 bra $Lt_2_2818;
GPGPU-Sim PTX:    immediate post dominator      @  PC=0x730 (_1.ptx:368) ret;
GPGPU-Sim PTX: ... end of reconvergence points for _Z12path_calc_b2PfS_S_
GPGPU-Sim PTX: ... done pre-decoding instructions for '_Z12path_calc_b2PfS_S_'.
GPGPU-Sim PTX: allocating constant region for "Nopt" from 0x2c0 to 0x2c4 (global memory space) 5
GPGPU-Sim PTX: allocating constant region for "maturities" from 0x300 to 0x33c (global memory space) 6
GPGPU-Sim PTX: allocating constant region for "swaprates" from 0x380 to 0x3bc (global memory space) 7
GPGPU-Sim PTX: allocating stack frame region for .local "__cuda___cuda_local_var_34164_9_non_const_B_16440" from 0x80 to 0x120
GPGPU-Sim PTX: allocating stack frame region for .local "__cuda___cuda_local_var_34164_16_non_const_S_176600" from 0x180 to 0x220
GPGPU-Sim PTX: allocating stack frame region for .local "__cuda___cuda_local_var_34164_23_non_const_B_b_336760" from 0x280 to 0x320
GPGPU-Sim PTX: allocating stack frame region for .local "__cuda___cuda_local_var_34164_32_non_const_S_b_496920" from 0x380 to 0x420
GPGPU-Sim PTX: instruction assembly for function '_Z11portfolio_bPfS_'...   done.
GPGPU-Sim PTX: finding reconvergence points for '_Z11portfolio_bPfS_'...
GPGPU-Sim PTX: Finding dominators for '_Z11portfolio_bPfS_'...
GPGPU-Sim PTX: Finding immediate dominators for '_Z11portfolio_bPfS_'...
GPGPU-Sim PTX: Finding postdominators for '_Z11portfolio_bPfS_'...
GPGPU-Sim PTX: Finding immediate postdominators for '_Z11portfolio_bPfS_'...
GPGPU-Sim PTX: pre-decoding instructions for '_Z11portfolio_bPfS_'...
GPGPU-Sim PTX: reconvergence points for _Z11portfolio_bPfS_...
GPGPU-Sim PTX:  1 (potential) branch divergence @  PC=0x780 (_1.ptx:397) @!%p1 bra $Lt_3_8962;
GPGPU-Sim PTX:    immediate post dominator      @  PC=0x868 (_1.ptx:433) @!%p1 bra $Lt_3_9986;
GPGPU-Sim PTX:  2 (potential) branch divergence @  PC=0x860 (_1.ptx:431) @%p2 bra $Lt_3_9474;
GPGPU-Sim PTX:    immediate post dominator      @  PC=0x868 (_1.ptx:433) @!%p1 bra $Lt_3_9986;
GPGPU-Sim PTX:  3 (potential) branch divergence @  PC=0x868 (_1.ptx:433) @!%p1 bra $Lt_3_9986;
GPGPU-Sim PTX:    immediate post dominator      @  PC=0x8e0 (_1.ptx:453) ld.const.s32 %r11, [Nopt];
GPGPU-Sim PTX:  4 (potential) branch divergence @  PC=0x8d8 (_1.ptx:451) @%p3 bra $Lt_3_10498;
GPGPU-Sim PTX:    immediate post dominator      @  PC=0x8e0 (_1.ptx:453) ld.const.s32 %r11, [Nopt];
GPGPU-Sim PTX:  5 (potential) branch divergence @  PC=0x8f8 (_1.ptx:456) @%p4 bra $Lt_3_17666;
GPGPU-Sim PTX:    immediate post dominator      @  PC=0xa80 (_1.ptx:515) sub.s32 %r17, %r3, 1;
GPGPU-Sim PTX:  6 (potential) branch divergence @  PC=0x9c8 (_1.ptx:485) @!%p5 bra $Lt_3_11778;
GPGPU-Sim PTX:    immediate post dominator      @  PC=0xa30 (_1.ptx:502) add.s32 %r14, %r14, 1;
GPGPU-Sim PTX:  7 (potential) branch divergence @  PC=0xa50 (_1.ptx:506) @%p6 bra $Lt_3_11522;
GPGPU-Sim PTX:    immediate post dominator      @  PC=0xa58 (_1.ptx:507) bra.uni $Lt_3_11010;
GPGPU-Sim PTX:  8 (potential) branch divergence @  PC=0xa58 (_1.ptx:507) bra.uni $Lt_3_11010;
GPGPU-Sim PTX:    immediate post dominator      @  PC=0xa80 (_1.ptx:515) sub.s32 %r17, %r3, 1;
GPGPU-Sim PTX:  9 (potential) branch divergence @  PC=0xa98 (_1.ptx:518) @%p7 bra $Lt_3_12546;
GPGPU-Sim PTX:    immediate post dominator      @  PC=0xc60 (_1.ptx:583) mov.s32 %r22, 0;
GPGPU-Sim PTX: 10 (potential) branch divergence @  PC=0xba0 (_1.ptx:555) @%p8 bra $Lt_3_13314;
GPGPU-Sim PTX:    immediate post dominator      @  PC=0xc20 (_1.ptx:574) sub.s32 %r6, %r6, 1;
GPGPU-Sim PTX: 11 (potential) branch divergence @  PC=0xc58 (_1.ptx:581) @%p9 bra $Lt_3_13058;
GPGPU-Sim PTX:    immediate post dominator      @  PC=0xc60 (_1.ptx:583) mov.s32 %r22, 0;
GPGPU-Sim PTX: 12 (potential) branch divergence @  PC=0xc70 (_1.ptx:585) @!%p10 bra $Lt_3_18178;
GPGPU-Sim PTX:    immediate post dominator      @  PC=0xd18 (_1.ptx:612) mul.f32 %f10, %f10, %f3;
GPGPU-Sim PTX: 13 (potential) branch divergence @  PC=0xd00 (_1.ptx:606) @%p11 bra $Lt_3_14594;
GPGPU-Sim PTX:    immediate post dominator      @  PC=0xd08 (_1.ptx:607) bra.uni $Lt_3_14082;
GPGPU-Sim PTX: 14 (potential) branch divergence @  PC=0xd08 (_1.ptx:607) bra.uni $Lt_3_14082;
GPGPU-Sim PTX:    immediate post dominator      @  PC=0xd18 (_1.ptx:612) mul.f32 %f10, %f10, %f3;
GPGPU-Sim PTX: 15 (potential) branch divergence @  PC=0xd20 (_1.ptx:613) @!%p10 bra $Lt_3_15106;
GPGPU-Sim PTX:    immediate post dominator      @  PC=0xdd8 (_1.ptx:641) mov.s32 %r14, %r1;
GPGPU-Sim PTX: 16 (potential) branch divergence @  PC=0xdd0 (_1.ptx:638) @%p12 bra $Lt_3_15618;
GPGPU-Sim PTX:    immediate post dominator      @  PC=0xdd8 (_1.ptx:641) mov.s32 %r14, %r1;
GPGPU-Sim PTX: 17 (potential) branch divergence @  PC=0xde8 (_1.ptx:643) @%p13 bra $Lt_3_16130;
GPGPU-Sim PTX:    immediate post dominator      @  PC=0xe50 (_1.ptx:661) mov.f32 %f54, %f10;
GPGPU-Sim PTX: 18 (potential) branch divergence @  PC=0xe48 (_1.ptx:658) @%p14 bra $Lt_3_16642;
GPGPU-Sim PTX:    immediate post dominator      @  PC=0xe50 (_1.ptx:661) mov.f32 %f54, %f10;
GPGPU-Sim PTX: ... end of reconvergence points for _Z11portfolio_bPfS_
GPGPU-Sim PTX: ... done pre-decoding instructions for '_Z11portfolio_bPfS_'.
GPGPU-Sim PTX: allocating stack frame region for .local "__cuda___cuda_local_var_34227_27_non_const_B_01080" from 0x80 to 0x120
GPGPU-Sim PTX: allocating stack frame region for .local "__cuda___cuda_local_var_34227_34_non_const_S_1601240" from 0x180 to 0x220
GPGPU-Sim PTX: instruction assembly for function '_Z9portfolioPf'...   done.
GPGPU-Sim PTX: finding reconvergence points for '_Z9portfolioPf'...
GPGPU-Sim PTX: Finding dominators for '_Z9portfolioPf'...
GPGPU-Sim PTX: Finding immediate dominators for '_Z9portfolioPf'...
GPGPU-Sim PTX: Finding postdominators for '_Z9portfolioPf'...
GPGPU-Sim PTX: Finding immediate postdominators for '_Z9portfolioPf'...
GPGPU-Sim PTX: pre-decoding instructions for '_Z9portfolioPf'...
GPGPU-Sim PTX: reconvergence points for _Z9portfolioPf...
GPGPU-Sim PTX:  1 (potential) branch divergence @  PC=0xe90 (_1.ptx:684) @%p1 bra $Lt_4_4098;
GPGPU-Sim PTX:    immediate post dominator      @  PC=0xf90 (_1.ptx:723) cvta.local.u64 %rd3, __cuda___cuda_local_var_34227_27_non_const_B_01080;
GPGPU-Sim PTX:  2 (potential) branch divergence @  PC=0xf88 (_1.ptx:721) @%p2 bra $Lt_4_4610;
GPGPU-Sim PTX:    immediate post dominator      @  PC=0xf90 (_1.ptx:723) cvta.local.u64 %rd3, __cuda___cuda_local_var_34227_27_non_const_B_01080;
GPGPU-Sim PTX:  3 (potential) branch divergence @  PC=0xfb8 (_1.ptx:728) @%p3 bra $Lt_4_7426;
GPGPU-Sim PTX:    immediate post dominator      @  PC=0x10d0 (_1.ptx:769) mov.u32 %r13, 0;
GPGPU-Sim PTX:  4 (potential) branch divergence @  PC=0x10b8 (_1.ptx:764) @%p5 bra $Lt_4_5634;
GPGPU-Sim PTX:    immediate post dominator      @  PC=0x10c0 (_1.ptx:765) bra.uni $Lt_4_5122;
GPGPU-Sim PTX:  5 (potential) branch divergence @  PC=0x10c0 (_1.ptx:765) bra.uni $Lt_4_5122;
GPGPU-Sim PTX:    immediate post dominator      @  PC=0x10d0 (_1.ptx:769) mov.u32 %r13, 0;
GPGPU-Sim PTX:  6 (potential) branch divergence @  PC=0x10e0 (_1.ptx:771) @%p6 bra $Lt_4_7682;
GPGPU-Sim PTX:    immediate post dominator      @  PC=0x1188 (_1.ptx:798) mul.f32 %f16, %f6, %f3;
GPGPU-Sim PTX:  7 (potential) branch divergence @  PC=0x1170 (_1.ptx:792) @%p7 bra $Lt_4_6658;
GPGPU-Sim PTX:    immediate post dominator      @  PC=0x1178 (_1.ptx:793) bra.uni $Lt_4_6146;
GPGPU-Sim PTX:  8 (potential) branch divergence @  PC=0x1178 (_1.ptx:793) bra.uni $Lt_4_6146;
GPGPU-Sim PTX:    immediate post dominator      @  PC=0x1188 (_1.ptx:798) mul.f32 %f16, %f6, %f3;
GPGPU-Sim PTX: ... end of reconvergence points for _Z9portfolioPf
GPGPU-Sim PTX: ... done pre-decoding instructions for '_Z9portfolioPf'.
GPGPU-Sim PTX: allocating stack frame region for .local "__cuda___cuda_local_var_34164_32_non_const_S_b_161416" from 0x0 to 0xa0
GPGPU-Sim PTX: allocating stack frame region for .local "__cuda___cuda_local_var_34164_16_non_const_S_1761576" from 0x100 to 0x1a0
GPGPU-Sim PTX: allocating stack frame region for .local "__cuda___cuda_local_var_34265_16_non_const_L2_3361736" from 0x200 to 0x3540
GPGPU-Sim PTX: allocating stack frame region for .local "__cuda___cuda_local_var_34164_23_non_const_B_b_1345614856" from 0x3580 to 0x3620
GPGPU-Sim PTX: allocating stack frame region for .local "__cuda___cuda_local_var_34164_9_non_const_B_1361615016" from 0x3680 to 0x3720
GPGPU-Sim PTX: allocating stack frame region for .local "__cuda___cuda_local_var_34265_26_non_const_z_1377615176" from 0x3780 to 0x38c0
GPGPU-Sim PTX: allocating stack frame region for .local "__cuda___cuda_local_var_34265_9_non_const_L_1409615496" from 0x3900 to 0x3a40
GPGPU-Sim PTX: instruction assembly for function '_Z28Pathcalc_Portfolio_KernelGPUPfS_'...   done.
GPGPU-Sim PTX: finding reconvergence points for '_Z28Pathcalc_Portfolio_KernelGPUPfS_'...
GPGPU-Sim PTX: Finding dominators for '_Z28Pathcalc_Portfolio_KernelGPUPfS_'...
GPGPU-Sim PTX: Finding immediate dominators for '_Z28Pathcalc_Portfolio_KernelGPUPfS_'...
GPGPU-Sim PTX: Finding postdominators for '_Z28Pathcalc_Portfolio_KernelGPUPfS_'...
GPGPU-Sim PTX: Finding immediate postdominators for '_Z28Pathcalc_Portfolio_KernelGPUPfS_'...
GPGPU-Sim PTX: pre-decoding instructions for '_Z28Pathcalc_Portfolio_KernelGPUPfS_'...
GPGPU-Sim PTX: reconvergence points for _Z28Pathcalc_Portfolio_KernelGPUPfS_...
GPGPU-Sim PTX:  1 (potential) branch divergence @  PC=0x11e0 (_1.ptx:831) @%p1 bra $Lt_5_16130;
GPGPU-Sim PTX:    immediate post dominator      @  PC=0x1e48 (_1.ptx:1310) exit;
GPGPU-Sim PTX:  2 (potential) branch divergence @  PC=0x1320 (_1.ptx:873) @!%p2 bra $Lt_5_17922;
GPGPU-Sim PTX:    immediate post dominator      @  PC=0x1400 (_1.ptx:911) @!%p3 bra $Lt_5_18946;
GPGPU-Sim PTX:  3 (potential) branch divergence @  PC=0x1390 (_1.ptx:891) @%p9 bra $Lt_5_17410;
GPGPU-Sim PTX:    immediate post dominator      @  PC=0x1398 (_1.ptx:894) @!%p2 bra $Lt_5_17922;
GPGPU-Sim PTX:  4 (potential) branch divergence @  PC=0x1398 (_1.ptx:894) @!%p2 bra $Lt_5_17922;
GPGPU-Sim PTX:    immediate post dominator      @  PC=0x1400 (_1.ptx:911) @!%p3 bra $Lt_5_18946;
GPGPU-Sim PTX:  5 (potential) branch divergence @  PC=0x13f8 (_1.ptx:909) @%p10 bra $Lt_5_18434;
GPGPU-Sim PTX:    immediate post dominator      @  PC=0x1400 (_1.ptx:911) @!%p3 bra $Lt_5_18946;
GPGPU-Sim PTX:  6 (potential) branch divergence @  PC=0x1400 (_1.ptx:911) @!%p3 bra $Lt_5_18946;
GPGPU-Sim PTX:    immediate post dominator      @  PC=0x1610 (_1.ptx:989) @!%p6 bra $Lt_5_22018;
GPGPU-Sim PTX:  7 (potential) branch divergence @  PC=0x1438 (_1.ptx:921) @%p11 bra $Lt_5_19714;
GPGPU-Sim PTX:    immediate post dominator      @  PC=0x15f8 (_1.ptx:984) mov.s32 %r29, %r31;
GPGPU-Sim PTX:  8 (potential) branch divergence @  PC=0x15f0 (_1.ptx:982) @%p12 bra $Lt_5_20226;
GPGPU-Sim PTX:    immediate post dominator      @  PC=0x15f8 (_1.ptx:984) mov.s32 %r29, %r31;
GPGPU-Sim PTX:  9 (potential) branch divergence @  PC=0x1608 (_1.ptx:986) @%p13 bra $Lt_5_19458;
GPGPU-Sim PTX:    immediate post dominator      @  PC=0x1610 (_1.ptx:989) @!%p6 bra $Lt_5_22018;
GPGPU-Sim PTX: 10 (potential) branch divergence @  PC=0x1610 (_1.ptx:989) @!%p6 bra $Lt_5_22018;
GPGPU-Sim PTX:    immediate post dominator      @  PC=0x1770 (_1.ptx:1045) @!%p4 bra $Lt_5_33282;
GPGPU-Sim PTX: 11 (potential) branch divergence @  PC=0x16f0 (_1.ptx:1023) @%p14 bra $Lt_5_21506;
GPGPU-Sim PTX:    immediate post dominator      @  PC=0x16f8 (_1.ptx:1025) @!%p6 bra $Lt_5_22018;
GPGPU-Sim PTX: 12 (potential) branch divergence @  PC=0x16f8 (_1.ptx:1025) @!%p6 bra $Lt_5_22018;
GPGPU-Sim PTX:    immediate post dominator      @  PC=0x1770 (_1.ptx:1045) @!%p4 bra $Lt_5_33282;
GPGPU-Sim PTX: 13 (potential) branch divergence @  PC=0x1768 (_1.ptx:1043) @%p15 bra $Lt_5_22530;
GPGPU-Sim PTX:    immediate post dominator      @  PC=0x1770 (_1.ptx:1045) @!%p4 bra $Lt_5_33282;
GPGPU-Sim PTX: 14 (potential) branch divergence @  PC=0x1770 (_1.ptx:1045) @!%p4 bra $Lt_5_33282;
GPGPU-Sim PTX:    immediate post dominator      @  PC=0x18c0 (_1.ptx:1096) @!%p8 bra $Lt_5_24578;
GPGPU-Sim PTX: 15 (potential) branch divergence @  PC=0x1820 (_1.ptx:1070) @!%p16 bra $Lt_5_23810;
GPGPU-Sim PTX:    immediate post dominator      @  PC=0x1888 (_1.ptx:1087) add.s32 %r46, %r46, 1;
GPGPU-Sim PTX: 16 (potential) branch divergence @  PC=0x18a8 (_1.ptx:1091) @%p17 bra $Lt_5_23554;
GPGPU-Sim PTX:    immediate post dominator      @  PC=0x18b0 (_1.ptx:1092) bra.uni $Lt_5_23042;
GPGPU-Sim PTX: 17 (potential) branch divergence @  PC=0x18b0 (_1.ptx:1092) bra.uni $Lt_5_23042;
GPGPU-Sim PTX:    immediate post dominator      @  PC=0x18c0 (_1.ptx:1096) @!%p8 bra $Lt_5_24578;
GPGPU-Sim PTX: 18 (potential) branch divergence @  PC=0x18c0 (_1.ptx:1096) @!%p8 bra $Lt_5_24578;
GPGPU-Sim PTX:    immediate post dominator      @  PC=0x1a58 (_1.ptx:1155) @!%p3 bra $Lt_5_33794;
GPGPU-Sim PTX: 19 (potential) branch divergence @  PC=0x19b8 (_1.ptx:1131) @%p18 bra $Lt_5_25346;
GPGPU-Sim PTX:    immediate post dominator      @  PC=0x1a20 (_1.ptx:1147) sub.s32 %r40, %r40, 1;
GPGPU-Sim PTX: 20 (potential) branch divergence @  PC=0x1a50 (_1.ptx:1153) @%p19 bra $Lt_5_25090;
GPGPU-Sim PTX:    immediate post dominator      @  PC=0x1a58 (_1.ptx:1155) @!%p3 bra $Lt_5_33794;
GPGPU-Sim PTX: 21 (potential) branch divergence @  PC=0x1a58 (_1.ptx:1155) @!%p3 bra $Lt_5_33794;
GPGPU-Sim PTX:    immediate post dominator      @  PC=0x1b00 (_1.ptx:1182) mul.f32 %f30, %f30, %f24;
GPGPU-Sim PTX: 22 (potential) branch divergence @  PC=0x1ae8 (_1.ptx:1176) @%p20 bra $Lt_5_26626;
GPGPU-Sim PTX:    immediate post dominator      @  PC=0x1af0 (_1.ptx:1177) bra.uni $Lt_5_26114;
GPGPU-Sim PTX: 23 (potential) branch divergence @  PC=0x1af0 (_1.ptx:1177) bra.uni $Lt_5_26114;
GPGPU-Sim PTX:    immediate post dominator      @  PC=0x1b00 (_1.ptx:1182) mul.f32 %f30, %f30, %f24;
GPGPU-Sim PTX: 24 (potential) branch divergence @  PC=0x1b08 (_1.ptx:1183) @!%p3 bra $Lt_5_27138;
GPGPU-Sim PTX:    immediate post dominator      @  PC=0x1bb0 (_1.ptx:1209) mov.s32 %r46, %r10;
GPGPU-Sim PTX: 25 (potential) branch divergence @  PC=0x1ba8 (_1.ptx:1206) @%p21 bra $Lt_5_27650;
GPGPU-Sim PTX:    immediate post dominator      @  PC=0x1bb0 (_1.ptx:1209) mov.s32 %r46, %r10;
GPGPU-Sim PTX: 26 (potential) branch divergence @  PC=0x1bb8 (_1.ptx:1210) @!%p5 bra $Lt_5_28162;
GPGPU-Sim PTX:    immediate post dominator      @  PC=0x1c20 (_1.ptx:1228) st.global.f32 [%rd5+0], %f30;
GPGPU-Sim PTX: 27 (potential) branch divergence @  PC=0x1c18 (_1.ptx:1225) @%p22 bra $Lt_5_28674;
GPGPU-Sim PTX:    immediate post dominator      @  PC=0x1c20 (_1.ptx:1228) st.global.f32 [%rd5+0], %f30;
GPGPU-Sim PTX: 28 (potential) branch divergence @  PC=0x1c30 (_1.ptx:1231) @!%p7 bra $Lt_5_29186;
GPGPU-Sim PTX:    immediate post dominator      @  PC=0x1e08 (_1.ptx:1300) ld.local.f32 %f85, [__cuda___cuda_local_var_34265_9_non_const_L_1409615496+316];
GPGPU-Sim PTX: 29 (potential) branch divergence @  PC=0x1c58 (_1.ptx:1238) @%p23 bra $Lt_5_29954;
GPGPU-Sim PTX:    immediate post dominator      @  PC=0x1de8 (_1.ptx:1294) sub.s32 %r57, %r57, 1;
GPGPU-Sim PTX: 30 (potential) branch divergence @  PC=0x1de0 (_1.ptx:1292) @%p24 bra $Lt_5_30466;
GPGPU-Sim PTX:    immediate post dominator      @  PC=0x1de8 (_1.ptx:1294) sub.s32 %r57, %r57, 1;
GPGPU-Sim PTX: 31 (potential) branch divergence @  PC=0x1e00 (_1.ptx:1297) @%p25 bra $Lt_5_29698;
GPGPU-Sim PTX:    immediate post dominator      @  PC=0x1e08 (_1.ptx:1300) ld.local.f32 %f85, [__cuda___cuda_local_var_34265_9_non_const_L_1409615496+316];
GPGPU-Sim PTX: 32 (potential) branch divergence @  PC=0x1e40 (_1.ptx:1307) @%p26 bra $Lt_5_16642;
GPGPU-Sim PTX:    immediate post dominator      @  PC=0x1e48 (_1.ptx:1310) exit;
GPGPU-Sim PTX: ... end of reconvergence points for _Z28Pathcalc_Portfolio_KernelGPUPfS_
GPGPU-Sim PTX: ... done pre-decoding instructions for '_Z28Pathcalc_Portfolio_KernelGPUPfS_'.
GPGPU-Sim PTX: allocating stack frame region for .local "__cuda___cuda_local_var_34227_27_non_const_B_1615824" from 0x0 to 0xa0
GPGPU-Sim PTX: allocating stack frame region for .local "__cuda___cuda_local_var_34291_9_non_const_L_17615984" from 0x100 to 0x240
GPGPU-Sim PTX: allocating stack frame region for .local "__cuda___cuda_local_var_34227_34_non_const_S_49616304" from 0x280 to 0x320
GPGPU-Sim PTX: allocating stack frame region for .local "__cuda___cuda_local_var_34291_16_non_const_z_65616464" from 0x380 to 0x4c0
GPGPU-Sim PTX: instruction assembly for function '_Z29Pathcalc_Portfolio_KernelGPU2Pf'...   done.
GPGPU-Sim PTX: finding reconvergence points for '_Z29Pathcalc_Portfolio_KernelGPU2Pf'...
GPGPU-Sim PTX: Finding dominators for '_Z29Pathcalc_Portfolio_KernelGPU2Pf'...
GPGPU-Sim PTX: Finding immediate dominators for '_Z29Pathcalc_Portfolio_KernelGPU2Pf'...
GPGPU-Sim PTX: Finding postdominators for '_Z29Pathcalc_Portfolio_KernelGPU2Pf'...
GPGPU-Sim PTX: Finding immediate postdominators for '_Z29Pathcalc_Portfolio_KernelGPU2Pf'...
GPGPU-Sim PTX: pre-decoding instructions for '_Z29Pathcalc_Portfolio_KernelGPU2Pf'...
GPGPU-Sim PTX: reconvergence points for _Z29Pathcalc_Portfolio_KernelGPU2Pf...
GPGPU-Sim PTX:  1 (potential) branch divergence @  PC=0x1e90 (_1.ptx:1337) @%p1 bra $Lt_6_8194;
GPGPU-Sim PTX:    immediate post dominator      @  PC=0x2498 (_1.ptx:1571) exit;
GPGPU-Sim PTX:  2 (potential) branch divergence @  PC=0x1f60 (_1.ptx:1365) @!%p2 bra $Lt_6_8962;
GPGPU-Sim PTX:    immediate post dominator      @  PC=0x1fd8 (_1.ptx:1386) @!%p3 bra $Lt_6_9986;
GPGPU-Sim PTX:  3 (potential) branch divergence @  PC=0x1fd0 (_1.ptx:1383) @%p6 bra $Lt_6_9474;
GPGPU-Sim PTX:    immediate post dominator      @  PC=0x1fd8 (_1.ptx:1386) @!%p3 bra $Lt_6_9986;
GPGPU-Sim PTX:  4 (potential) branch divergence @  PC=0x1fd8 (_1.ptx:1386) @!%p3 bra $Lt_6_9986;
GPGPU-Sim PTX:    immediate post dominator      @  PC=0x21b0 (_1.ptx:1456) @!%p4 bra $Lt_6_12034;
GPGPU-Sim PTX:  5 (potential) branch divergence @  PC=0x2010 (_1.ptx:1396) @%p7 bra $Lt_6_10754;
GPGPU-Sim PTX:    immediate post dominator      @  PC=0x2198 (_1.ptx:1451) mov.s32 %r20, %r22;
GPGPU-Sim PTX:  6 (potential) branch divergence @  PC=0x2190 (_1.ptx:1449) @%p8 bra $Lt_6_11266;
GPGPU-Sim PTX:    immediate post dominator      @  PC=0x2198 (_1.ptx:1451) mov.s32 %r20, %r22;
GPGPU-Sim PTX:  7 (potential) branch divergence @  PC=0x21a8 (_1.ptx:1453) @%p9 bra $Lt_6_10498;
GPGPU-Sim PTX:    immediate post dominator      @  PC=0x21b0 (_1.ptx:1456) @!%p4 bra $Lt_6_12034;
GPGPU-Sim PTX:  8 (potential) branch divergence @  PC=0x21b0 (_1.ptx:1456) @!%p4 bra $Lt_6_12034;
GPGPU-Sim PTX:    immediate post dominator      @  PC=0x22a0 (_1.ptx:1493) @!%p5 bra $Lt_6_16642;
GPGPU-Sim PTX:  9 (potential) branch divergence @  PC=0x2298 (_1.ptx:1491) @%p10 bra $Lt_6_12546;
GPGPU-Sim PTX:    immediate post dominator      @  PC=0x22a0 (_1.ptx:1493) @!%p5 bra $Lt_6_16642;
GPGPU-Sim PTX: 10 (potential) branch divergence @  PC=0x22a0 (_1.ptx:1493) @!%p5 bra $Lt_6_16642;
GPGPU-Sim PTX:    immediate post dominator      @  PC=0x23b8 (_1.ptx:1534) @!%p3 bra $Lt_6_16898;
GPGPU-Sim PTX: 11 (potential) branch divergence @  PC=0x23a0 (_1.ptx:1529) @%p12 bra $Lt_6_13570;
GPGPU-Sim PTX:    immediate post dominator      @  PC=0x23a8 (_1.ptx:1530) bra.uni $Lt_6_13058;
GPGPU-Sim PTX: 12 (potential) branch divergence @  PC=0x23a8 (_1.ptx:1530) bra.uni $Lt_6_13058;
GPGPU-Sim PTX:    immediate post dominator      @  PC=0x23b8 (_1.ptx:1534) @!%p3 bra $Lt_6_16898;
GPGPU-Sim PTX: 13 (potential) branch divergence @  PC=0x23b8 (_1.ptx:1534) @!%p3 bra $Lt_6_16898;
GPGPU-Sim PTX:    immediate post dominator      @  PC=0x2460 (_1.ptx:1561) mul.f32 %f25, %f25, %f22;
GPGPU-Sim PTX: 14 (potential) branch divergence @  PC=0x2448 (_1.ptx:1555) @%p13 bra $Lt_6_14594;
GPGPU-Sim PTX:    immediate post dominator      @  PC=0x2450 (_1.ptx:1556) bra.uni $Lt_6_14082;
GPGPU-Sim PTX: 15 (potential) branch divergence @  PC=0x2450 (_1.ptx:1556) bra.uni $Lt_6_14082;
GPGPU-Sim PTX:    immediate post dominator      @  PC=0x2460 (_1.ptx:1561) mul.f32 %f25, %f25, %f22;
GPGPU-Sim PTX: 16 (potential) branch divergence @  PC=0x2490 (_1.ptx:1568) @%p14 bra $Lt_6_8706;
GPGPU-Sim PTX:    immediate post dominator      @  PC=0x2498 (_1.ptx:1571) exit;
GPGPU-Sim PTX: ... end of reconvergence points for _Z29Pathcalc_Portfolio_KernelGPU2Pf
GPGPU-Sim PTX: ... done pre-decoding instructions for '_Z29Pathcalc_Portfolio_KernelGPU2Pf'.
GPGPU-Sim PTX: finished parsing EMBEDDED .ptx file _1.ptx
Adding _cuobjdump_2.ptx with cubin handle 1
GPGPU-Sim PTX: extracting embedded .ptx to temporary file "_ptx_d1c5rF"
Running: cat _ptx_d1c5rF | sed 's/.version 1.5/.version 1.4/' | sed 's/, texmode_independent//' | sed 's/\(\.extern \.const\[1\] .b8 \w\+\)\[\]/\1\[1\]/' | sed 's/const\[.\]/const\[0\]/g' > _ptx2_nMxxEy
GPGPU-Sim PTX: generating ptxinfo using "$CUDA_INSTALL_PATH/bin/ptxas --gpu-name=sm_20 -v _ptx2_nMxxEy --output-file  /dev/null 2> _ptx_d1c5rFinfo"
GPGPU-Sim PTX: Kernel '_Z29Pathcalc_Portfolio_KernelGPU2Pf' : regs=33, lmem=4, smem=0, cmem=508
GPGPU-Sim PTX: Kernel '_Z28Pathcalc_Portfolio_KernelGPUPfS_' : regs=41, lmem=4, smem=0, cmem=516
GPGPU-Sim PTX: removing ptxinfo using "rm -f _ptx_d1c5rF _ptx2_nMxxEy _ptx_d1c5rFinfo"
GPGPU-Sim PTX: loading globals with explicit initializers... 
GPGPU-Sim PTX: finished loading globals (0 bytes total).
GPGPU-Sim PTX: loading constants with explicit initializers...  done.
GPGPU-Sim PTX: __cudaRegisterFunction _Z28Pathcalc_Portfolio_KernelGPUPfS_ : hostFun 0x0x403ba0, fat_cubin_handle = 1
GPGPU-Sim PTX: __cudaRegisterVar: hostVar = 0x62d448; deviceAddress = N; deviceName = N
GPGPU-Sim PTX: __cudaRegisterVar: Registering const memory space of 4 bytes
GPGPU-Sim PTX registering constant N (4 bytes) to name mapping
GPGPU-Sim PTX: __cudaRegisterVar: hostVar = 0x62d44c; deviceAddress = Nmat; deviceName = Nmat
GPGPU-Sim PTX: __cudaRegisterVar: Registering const memory space of 4 bytes
GPGPU-Sim PTX registering constant Nmat (4 bytes) to name mapping
GPGPU-Sim PTX: __cudaRegisterVar: hostVar = 0x62d450; deviceAddress = Nopt; deviceName = Nopt
GPGPU-Sim PTX: __cudaRegisterVar: Registering const memory space of 4 bytes
GPGPU-Sim PTX registering constant Nopt (4 bytes) to name mapping
GPGPU-Sim PTX: __cudaRegisterVar: hostVar = 0x62d460; deviceAddress = maturities; deviceName = maturities
GPGPU-Sim PTX: __cudaRegisterVar: Registering const memory space of 60 bytes
GPGPU-Sim PTX registering constant maturities (60 bytes) to name mapping
GPGPU-Sim PTX: __cudaRegisterVar: hostVar = 0x62d49c; deviceAddress = delta; deviceName = delta
GPGPU-Sim PTX: __cudaRegisterVar: Registering const memory space of 4 bytes
GPGPU-Sim PTX registering constant delta (4 bytes) to name mapping
GPGPU-Sim PTX: __cudaRegisterVar: hostVar = 0x62d4a0; deviceAddress = swaprates; deviceName = swaprates
GPGPU-Sim PTX: __cudaRegisterVar: Registering const memory space of 60 bytes
GPGPU-Sim PTX registering constant swaprates (60 bytes) to name mapping
GPGPU-Sim PTX: __cudaRegisterVar: hostVar = 0x62d4e0; deviceAddress = lambda; deviceName = lambda
GPGPU-Sim PTX: __cudaRegisterVar: Registering const memory space of 320 bytes
GPGPU-Sim PTX registering constant lambda (320 bytes) to name mapping
GPGPU-Sim PTX: cudaMemcpyToSymbol: symbol = 0x62d448
GPGPU-Sim PTX: starting gpgpu_ptx_sim_memcpy_symbol with hostVar 0x0x62d448
GPGPU-Sim PTX: gpgpu_ptx_sim_memcpy_symbol: Found PTX symbol w/ hostVar=0x62d448
GPGPU-Sim PTX: gpgpu_ptx_sim_memcpy_symbol: copying const memory 4 bytes  to  symbol N+0 @0x100 ...
GPGPU-Sim PTX: cudaMemcpyToSymbol: symbol = 0x62d44c
GPGPU-Sim PTX: starting gpgpu_ptx_sim_memcpy_symbol with hostVar 0x0x62d44c
GPGPU-Sim PTX: gpgpu_ptx_sim_memcpy_symbol: Found PTX symbol w/ hostVar=0x62d44c
GPGPU-Sim PTX: gpgpu_ptx_sim_memcpy_symbol: copying const memory 4 bytes  to  symbol Nmat+0 @0x104 ...
GPGPU-Sim PTX: cudaMemcpyToSymbol: symbol = 0x62d450
GPGPU-Sim PTX: starting gpgpu_ptx_sim_memcpy_symbol with hostVar 0x0x62d450
GPGPU-Sim PTX: gpgpu_ptx_sim_memcpy_symbol: Found PTX symbol w/ hostVar=0x62d450
GPGPU-Sim PTX: gpgpu_ptx_sim_memcpy_symbol: copying const memory 4 bytes  to  symbol Nopt+0 @0x2c0 ...
GPGPU-Sim PTX: cudaMemcpyToSymbol: symbol = 0x62d49c
GPGPU-Sim PTX: starting gpgpu_ptx_sim_memcpy_symbol with hostVar 0x0x62d49c
GPGPU-Sim PTX: gpgpu_ptx_sim_memcpy_symbol: Found PTX symbol w/ hostVar=0x62d49c
GPGPU-Sim PTX: gpgpu_ptx_sim_memcpy_symbol: copying const memory 4 bytes  to  symbol delta+0 @0x108 ...
GPGPU-Sim PTX: cudaMemcpyToSymbol: symbol = 0x62d460
GPGPU-Sim PTX: starting gpgpu_ptx_sim_memcpy_symbol with hostVar 0x0x62d460
GPGPU-Sim PTX: gpgpu_ptx_sim_memcpy_symbol: Found PTX symbol w/ hostVar=0x62d460
GPGPU-Sim PTX: gpgpu_ptx_sim_memcpy_symbol: copying const memory 60 bytes  to  symbol maturities+0 @0x300 ...
GPGPU-Sim PTX: cudaMemcpyToSymbol: symbol = 0x62d4a0
GPGPU-Sim PTX: starting gpgpu_ptx_sim_memcpy_symbol with hostVar 0x0x62d4a0
GPGPU-Sim PTX: gpgpu_ptx_sim_memcpy_symbol: Found PTX symbol w/ hostVar=0x62d4a0
GPGPU-Sim PTX: gpgpu_ptx_sim_memcpy_symbol: copying const memory 60 bytes  to  symbol swaprates+0 @0x380 ...
GPGPU-Sim PTX: cudaMemcpyToSymbol: symbol = 0x62d4e0
GPGPU-Sim PTX: starting gpgpu_ptx_sim_memcpy_symbol with hostVar 0x0x62d4e0
GPGPU-Sim PTX: gpgpu_ptx_sim_memcpy_symbol: Found PTX symbol w/ hostVar=0x62d4e0
GPGPU-Sim PTX: gpgpu_ptx_sim_memcpy_symbol: copying const memory 320 bytes  to  symbol lambda+0 @0x180 ...
GPGPU-Sim: synchronize waiting for inactive GPU simulation
GPGPU-Sim API: Stream Manager State
GPGPU-Sim: detected inactive GPU simulation thread

GPGPU-Sim PTX: cudaLaunch for 0x0x403b30 (mode=performance simulation) on stream 0
GPGPU-Sim PTX: pushing kernel '_Z29Pathcalc_Portfolio_KernelGPU2Pf' to stream 0, gridDim= (64,1,1) blockDim = (64,1,1) 
kernel '_Z29Pathcalc_Portfolio_KernelGPU2Pf' transfer to GPU hardware scheduler
GPGPU-Sim uArch: Shader 1 bind to kernel 1 '_Z29Pathcalc_Portfolio_KernelGPU2Pf'
GPGPU-Sim uArch: CTA/core = 8, limited by: cta_limit
GPGPU-Sim uArch: core:  1, cta: 0 initialized @(1,0)
GPGPU-Sim uArch: Shader 2 bind to kernel 1 '_Z29Pathcalc_Portfolio_KernelGPU2Pf'
GPGPU-Sim uArch: core:  2, cta: 0 initialized @(1,0)
GPGPU-Sim uArch: Shader 3 bind to kernel 1 '_Z29Pathcalc_Portfolio_KernelGPU2Pf'
GPGPU-Sim uArch: core:  3, cta: 0 initialized @(1,0)
GPGPU-Sim uArch: Shader 4 bind to kernel 1 '_Z29Pathcalc_Portfolio_KernelGPU2Pf'
GPGPU-Sim uArch: core:  4, cta: 0 initialized @(1,0)
GPGPU-Sim uArch: Shader 5 bind to kernel 1 '_Z29Pathcalc_Portfolio_KernelGPU2Pf'
GPGPU-Sim uArch: core:  5, cta: 0 initialized @(1,0)
GPGPU-Sim uArch: Shader 6 bind to kernel 1 '_Z29Pathcalc_Portfolio_KernelGPU2Pf'
GPGPU-Sim uArch: core:  6, cta: 0 initialized @(1,0)
GPGPU-Sim uArch: Shader 7 bind to kernel 1 '_Z29Pathcalc_Portfolio_KernelGPU2Pf'
GPGPU-Sim uArch: core:  7, cta: 0 initialized @(1,0)
GPGPU-Sim uArch: Shader 8 bind to kernel 1 '_Z29Pathcalc_Portfolio_KernelGPU2Pf'
GPGPU-Sim uArch: core:  8, cta: 0 initialized @(1,0)
GPGPU-Sim uArch: Shader 9 bind to kernel 1 '_Z29Pathcalc_Portfolio_KernelGPU2Pf'
GPGPU-Sim uArch: core:  9, cta: 0 initialized @(1,0)
GPGPU-Sim uArch: Shader 10 bind to kernel 1 '_Z29Pathcalc_Portfolio_KernelGPU2Pf'
GPGPU-Sim uArch: core: 10, cta: 0 initialized @(1,0)
GPGPU-Sim uArch: Shader 11 bind to kernel 1 '_Z29Pathcalc_Portfolio_KernelGPU2Pf'
GPGPU-Sim uArch: core: 11, cta: 0 initialized @(1,0)
GPGPU-Sim uArch: Shader 12 bind to kernel 1 '_Z29Pathcalc_Portfolio_KernelGPU2Pf'
GPGPU-Sim uArch: core: 12, cta: 0 initialized @(1,0)
GPGPU-Sim uArch: Shader 13 bind to kernel 1 '_Z29Pathcalc_Portfolio_KernelGPU2Pf'
GPGPU-Sim uArch: core: 13, cta: 0 initialized @(1,0)
GPGPU-Sim uArch: Shader 14 bind to kernel 1 '_Z29Pathcalc_Portfolio_KernelGPU2Pf'
GPGPU-Sim uArch: core: 14, cta: 0 initialized @(1,0)
GPGPU-Sim uArch: Shader 0 bind to kernel 1 '_Z29Pathcalc_Portfolio_KernelGPU2Pf'
GPGPU-Sim uArch: core:  0, cta: 0 initialized @(1,0)
GPGPU-Sim uArch: core:  1, cta: 1 initialized @(2,0)
GPGPU-Sim uArch: core:  2, cta: 1 initialized @(2,0)
GPGPU-Sim uArch: core:  3, cta: 1 initialized @(2,0)
GPGPU-Sim uArch: core:  4, cta: 1 initialized @(2,0)
GPGPU-Sim uArch: core:  5, cta: 1 initialized @(2,0)
GPGPU-Sim uArch: core:  6, cta: 1 initialized @(2,0)
GPGPU-Sim uArch: core:  7, cta: 1 initialized @(2,0)
GPGPU-Sim uArch: core:  8, cta: 1 initialized @(2,0)
GPGPU-Sim uArch: core:  9, cta: 1 initialized @(2,0)
GPGPU-Sim uArch: core: 10, cta: 1 initialized @(2,0)
GPGPU-Sim uArch: core: 11, cta: 1 initialized @(2,0)
GPGPU-Sim uArch: core: 12, cta: 1 initialized @(2,0)
GPGPU-Sim uArch: core: 13, cta: 1 initialized @(2,0)
GPGPU-Sim uArch: core: 14, cta: 1 initialized @(2,0)
GPGPU-Sim uArch: core:  0, cta: 1 initialized @(2,0)
GPGPU-Sim uArch: core:  1, cta: 2 initialized @(3,0)
GPGPU-Sim uArch: core:  2, cta: 2 initialized @(3,0)
GPGPU-Sim uArch: core:  3, cta: 2 initialized @(3,0)
GPGPU-Sim uArch: core:  4, cta: 2 initialized @(3,0)
GPGPU-Sim uArch: core:  5, cta: 2 initialized @(3,0)
GPGPU-Sim uArch: core:  6, cta: 2 initialized @(3,0)
GPGPU-Sim uArch: core:  7, cta: 2 initialized @(3,0)
GPGPU-Sim uArch: core:  8, cta: 2 initialized @(3,0)
GPGPU-Sim uArch: core:  9, cta: 2 initialized @(3,0)
GPGPU-Sim uArch: core: 10, cta: 2 initialized @(3,0)
GPGPU-Sim uArch: core: 11, cta: 2 initialized @(3,0)
GPGPU-Sim uArch: core: 12, cta: 2 initialized @(3,0)
GPGPU-Sim uArch: core: 13, cta: 2 initialized @(3,0)
GPGPU-Sim uArch: core: 14, cta: 2 initialized @(3,0)
GPGPU-Sim uArch: core:  0, cta: 2 initialized @(3,0)
GPGPU-Sim uArch: core:  1, cta: 3 initialized @(4,0)
GPGPU-Sim uArch: core:  2, cta: 3 initialized @(4,0)
GPGPU-Sim uArch: core:  3, cta: 3 initialized @(4,0)
GPGPU-Sim uArch: core:  4, cta: 3 initialized @(4,0)
GPGPU-Sim uArch: core:  5, cta: 3 initialized @(4,0)
GPGPU-Sim uArch: core:  6, cta: 3 initialized @(4,0)
GPGPU-Sim uArch: core:  7, cta: 3 initialized @(4,0)
GPGPU-Sim uArch: core:  8, cta: 3 initialized @(4,0)
GPGPU-Sim uArch: core:  9, cta: 3 initialized @(4,0)
GPGPU-Sim uArch: core: 10, cta: 3 initialized @(4,0)
GPGPU-Sim uArch: core: 11, cta: 3 initialized @(4,0)
GPGPU-Sim uArch: core: 12, cta: 3 initialized @(4,0)
GPGPU-Sim uArch: core: 13, cta: 3 initialized @(4,0)
GPGPU-Sim uArch: core: 14, cta: 3 initialized @(4,0)
GPGPU-Sim uArch: core:  0, cta: 3 initialized @(4,0)
GPGPU-Sim uArch: core:  1, cta: 4 initialized @(5,0)
GPGPU-Sim uArch: core:  2, cta: 4 initialized @(5,0)
GPGPU-Sim uArch: core:  3, cta: 4 initialized @(5,0)
GPGPU-Sim uArch: core:  4, cta: 4 initialized @(5,0)
GPGPU-Sim uArch: cycles simulated: 500  inst.: 24576 (ipc=49.2) sim_rate=24576 (inst/sec) elapsed = 0:0:00:01 / Fri May 15 10:05:34 2015
GPGPU-Sim uArch: cycles simulated: 1000  inst.: 65536 (ipc=65.5) sim_rate=32768 (inst/sec) elapsed = 0:0:00:02 / Fri May 15 10:05:35 2015
GPGPU-Sim uArch: cycles simulated: 1500  inst.: 90336 (ipc=60.2) sim_rate=30112 (inst/sec) elapsed = 0:0:00:03 / Fri May 15 10:05:36 2015
GPGPU-Sim PTX: 100000 instructions simulated : ctaid=(39,0,0) tid=(31,0,0)
GPGPU-Sim uArch: cycles simulated: 2000  inst.: 147456 (ipc=73.7) sim_rate=36864 (inst/sec) elapsed = 0:0:00:04 / Fri May 15 10:05:37 2015
GPGPU-Sim PTX: 200000 instructions simulated : ctaid=(50,0,0) tid=(31,0,0)
GPGPU-Sim uArch: cycles simulated: 2500  inst.: 257728 (ipc=103.1) sim_rate=51545 (inst/sec) elapsed = 0:0:00:05 / Fri May 15 10:05:38 2015
GPGPU-Sim PTX: 300000 instructions simulated : ctaid=(38,0,0) tid=(31,0,0)
GPGPU-Sim uArch: cycles simulated: 3000  inst.: 305056 (ipc=101.7) sim_rate=50842 (inst/sec) elapsed = 0:0:00:06 / Fri May 15 10:05:39 2015
GPGPU-Sim uArch: cycles simulated: 3500  inst.: 336096 (ipc=96.0) sim_rate=48013 (inst/sec) elapsed = 0:0:00:07 / Fri May 15 10:05:40 2015
GPGPU-Sim uArch: cycles simulated: 4000  inst.: 373568 (ipc=93.4) sim_rate=46696 (inst/sec) elapsed = 0:0:00:08 / Fri May 15 10:05:41 2015
GPGPU-Sim PTX: 400000 instructions simulated : ctaid=(23,0,0) tid=(63,0,0)
GPGPU-Sim uArch: cycles simulated: 4500  inst.: 410688 (ipc=91.3) sim_rate=45632 (inst/sec) elapsed = 0:0:00:09 / Fri May 15 10:05:42 2015
GPGPU-Sim uArch: cycles simulated: 5500  inst.: 482016 (ipc=87.6) sim_rate=48201 (inst/sec) elapsed = 0:0:00:10 / Fri May 15 10:05:43 2015
GPGPU-Sim PTX: 500000 instructions simulated : ctaid=(29,0,0) tid=(31,0,0)
GPGPU-Sim uArch: cycles simulated: 6000  inst.: 524128 (ipc=87.4) sim_rate=47648 (inst/sec) elapsed = 0:0:00:11 / Fri May 15 10:05:44 2015
GPGPU-Sim uArch: cycles simulated: 6500  inst.: 568832 (ipc=87.5) sim_rate=47402 (inst/sec) elapsed = 0:0:00:12 / Fri May 15 10:05:45 2015
GPGPU-Sim PTX: 600000 instructions simulated : ctaid=(14,0,0) tid=(63,0,0)
GPGPU-Sim uArch: cycles simulated: 7000  inst.: 612576 (ipc=87.5) sim_rate=47121 (inst/sec) elapsed = 0:0:00:13 / Fri May 15 10:05:46 2015
GPGPU-Sim uArch: cycles simulated: 7500  inst.: 655456 (ipc=87.4) sim_rate=46818 (inst/sec) elapsed = 0:0:00:14 / Fri May 15 10:05:47 2015
GPGPU-Sim PTX: 700000 instructions simulated : ctaid=(6,0,0) tid=(31,0,0)
GPGPU-Sim uArch: cycles simulated: 8000  inst.: 696064 (ipc=87.0) sim_rate=46404 (inst/sec) elapsed = 0:0:00:15 / Fri May 15 10:05:48 2015
GPGPU-Sim uArch: cycles simulated: 8500  inst.: 736800 (ipc=86.7) sim_rate=46050 (inst/sec) elapsed = 0:0:00:16 / Fri May 15 10:05:49 2015
GPGPU-Sim uArch: cycles simulated: 9000  inst.: 774880 (ipc=86.1) sim_rate=45581 (inst/sec) elapsed = 0:0:00:17 / Fri May 15 10:05:50 2015
GPGPU-Sim PTX: 800000 instructions simulated : ctaid=(3,0,0) tid=(31,0,0)
GPGPU-Sim uArch: cycles simulated: 9500  inst.: 808800 (ipc=85.1) sim_rate=44933 (inst/sec) elapsed = 0:0:00:18 / Fri May 15 10:05:51 2015
GPGPU-Sim uArch: cycles simulated: 10000  inst.: 848032 (ipc=84.8) sim_rate=44633 (inst/sec) elapsed = 0:0:00:19 / Fri May 15 10:05:52 2015
GPGPU-Sim uArch: cycles simulated: 10500  inst.: 884832 (ipc=84.3) sim_rate=44241 (inst/sec) elapsed = 0:0:00:20 / Fri May 15 10:05:53 2015
GPGPU-Sim PTX: 900000 instructions simulated : ctaid=(54,0,0) tid=(63,0,0)
GPGPU-Sim uArch: cycles simulated: 11000  inst.: 939776 (ipc=85.4) sim_rate=44751 (inst/sec) elapsed = 0:0:00:21 / Fri May 15 10:05:54 2015
GPGPU-Sim uArch: cycles simulated: 11500  inst.: 980864 (ipc=85.3) sim_rate=44584 (inst/sec) elapsed = 0:0:00:22 / Fri May 15 10:05:55 2015
GPGPU-Sim PTX: 1000000 instructions simulated : ctaid=(8,0,0) tid=(63,0,0)
GPGPU-Sim uArch: cycles simulated: 12000  inst.: 1021888 (ipc=85.2) sim_rate=44429 (inst/sec) elapsed = 0:0:00:23 / Fri May 15 10:05:56 2015
GPGPU-Sim uArch: cycles simulated: 12500  inst.: 1071072 (ipc=85.7) sim_rate=44628 (inst/sec) elapsed = 0:0:00:24 / Fri May 15 10:05:57 2015
GPGPU-Sim PTX: 1100000 instructions simulated : ctaid=(33,0,0) tid=(63,0,0)
GPGPU-Sim uArch: cycles simulated: 13000  inst.: 1107424 (ipc=85.2) sim_rate=44296 (inst/sec) elapsed = 0:0:00:25 / Fri May 15 10:05:58 2015
GPGPU-Sim uArch: cycles simulated: 13500  inst.: 1148896 (ipc=85.1) sim_rate=44188 (inst/sec) elapsed = 0:0:00:26 / Fri May 15 10:05:59 2015
GPGPU-Sim uArch: cycles simulated: 14000  inst.: 1188480 (ipc=84.9) sim_rate=44017 (inst/sec) elapsed = 0:0:00:27 / Fri May 15 10:06:00 2015
GPGPU-Sim PTX: 1200000 instructions simulated : ctaid=(18,0,0) tid=(31,0,0)
GPGPU-Sim uArch: cycles simulated: 14500  inst.: 1230560 (ipc=84.9) sim_rate=43948 (inst/sec) elapsed = 0:0:00:28 / Fri May 15 10:06:01 2015
GPGPU-Sim uArch: cycles simulated: 15000  inst.: 1273216 (ipc=84.9) sim_rate=43904 (inst/sec) elapsed = 0:0:00:29 / Fri May 15 10:06:02 2015
GPGPU-Sim PTX: 1300000 instructions simulated : ctaid=(42,0,0) tid=(63,0,0)
GPGPU-Sim uArch: cycles simulated: 15500  inst.: 1319840 (ipc=85.2) sim_rate=43994 (inst/sec) elapsed = 0:0:00:30 / Fri May 15 10:06:03 2015
GPGPU-Sim uArch: cycles simulated: 16000  inst.: 1376960 (ipc=86.1) sim_rate=44418 (inst/sec) elapsed = 0:0:00:31 / Fri May 15 10:06:04 2015
GPGPU-Sim PTX: 1400000 instructions simulated : ctaid=(4,0,0) tid=(31,0,0)
GPGPU-Sim uArch: cycles simulated: 16500  inst.: 1418432 (ipc=86.0) sim_rate=44326 (inst/sec) elapsed = 0:0:00:32 / Fri May 15 10:06:05 2015
GPGPU-Sim uArch: cycles simulated: 17000  inst.: 1462144 (ipc=86.0) sim_rate=44307 (inst/sec) elapsed = 0:0:00:33 / Fri May 15 10:06:06 2015
GPGPU-Sim PTX: 1500000 instructions simulated : ctaid=(53,0,0) tid=(63,0,0)
GPGPU-Sim uArch: cycles simulated: 17500  inst.: 1507392 (ipc=86.1) sim_rate=44335 (inst/sec) elapsed = 0:0:00:34 / Fri May 15 10:06:07 2015
GPGPU-Sim uArch: cycles simulated: 18000  inst.: 1548832 (ipc=86.0) sim_rate=44252 (inst/sec) elapsed = 0:0:00:35 / Fri May 15 10:06:08 2015
GPGPU-Sim PTX: 1600000 instructions simulated : ctaid=(1,0,0) tid=(63,0,0)
GPGPU-Sim uArch: cycles simulated: 18500  inst.: 1593248 (ipc=86.1) sim_rate=44256 (inst/sec) elapsed = 0:0:00:36 / Fri May 15 10:06:09 2015
GPGPU-Sim uArch: cycles simulated: 19000  inst.: 1645568 (ipc=86.6) sim_rate=43304 (inst/sec) elapsed = 0:0:00:38 / Fri May 15 10:06:11 2015
GPGPU-Sim PTX: 1700000 instructions simulated : ctaid=(39,0,0) tid=(31,0,0)
GPGPU-Sim uArch: cycles simulated: 19500  inst.: 1693664 (ipc=86.9) sim_rate=43427 (inst/sec) elapsed = 0:0:00:39 / Fri May 15 10:06:12 2015
GPGPU-Sim uArch: cycles simulated: 20000  inst.: 1743712 (ipc=87.2) sim_rate=43592 (inst/sec) elapsed = 0:0:00:40 / Fri May 15 10:06:13 2015
GPGPU-Sim PTX: 1800000 instructions simulated : ctaid=(43,0,0) tid=(31,0,0)
GPGPU-Sim uArch: cycles simulated: 20500  inst.: 1792672 (ipc=87.4) sim_rate=43723 (inst/sec) elapsed = 0:0:00:41 / Fri May 15 10:06:14 2015
GPGPU-Sim uArch: cycles simulated: 21000  inst.: 1831616 (ipc=87.2) sim_rate=43609 (inst/sec) elapsed = 0:0:00:42 / Fri May 15 10:06:15 2015
GPGPU-Sim uArch: cycles simulated: 21500  inst.: 1877408 (ipc=87.3) sim_rate=43660 (inst/sec) elapsed = 0:0:00:43 / Fri May 15 10:06:16 2015
GPGPU-Sim PTX: 1900000 instructions simulated : ctaid=(4,0,0) tid=(63,0,0)
GPGPU-Sim uArch: cycles simulated: 22000  inst.: 1923840 (ipc=87.4) sim_rate=43723 (inst/sec) elapsed = 0:0:00:44 / Fri May 15 10:06:17 2015
GPGPU-Sim uArch: cycles simulated: 22500  inst.: 1975584 (ipc=87.8) sim_rate=43901 (inst/sec) elapsed = 0:0:00:45 / Fri May 15 10:06:18 2015
GPGPU-Sim PTX: 2000000 instructions simulated : ctaid=(57,0,0) tid=(31,0,0)
GPGPU-Sim uArch: cycles simulated: 23000  inst.: 2024992 (ipc=88.0) sim_rate=44021 (inst/sec) elapsed = 0:0:00:46 / Fri May 15 10:06:19 2015
GPGPU-Sim uArch: cycles simulated: 23500  inst.: 2079872 (ipc=88.5) sim_rate=44252 (inst/sec) elapsed = 0:0:00:47 / Fri May 15 10:06:20 2015
GPGPU-Sim PTX: 2100000 instructions simulated : ctaid=(52,0,0) tid=(31,0,0)
GPGPU-Sim uArch: cycles simulated: 24000  inst.: 2127936 (ipc=88.7) sim_rate=44332 (inst/sec) elapsed = 0:0:00:48 / Fri May 15 10:06:21 2015
GPGPU-Sim uArch: cycles simulated: 24500  inst.: 2172160 (ipc=88.7) sim_rate=44329 (inst/sec) elapsed = 0:0:00:49 / Fri May 15 10:06:22 2015
GPGPU-Sim PTX: 2200000 instructions simulated : ctaid=(29,0,0) tid=(63,0,0)
GPGPU-Sim uArch: cycles simulated: 25000  inst.: 2215968 (ipc=88.6) sim_rate=44319 (inst/sec) elapsed = 0:0:00:50 / Fri May 15 10:06:23 2015
GPGPU-Sim uArch: cycles simulated: 25500  inst.: 2260704 (ipc=88.7) sim_rate=44327 (inst/sec) elapsed = 0:0:00:51 / Fri May 15 10:06:24 2015
GPGPU-Sim PTX: 2300000 instructions simulated : ctaid=(21,0,0) tid=(63,0,0)
GPGPU-Sim uArch: cycles simulated: 26000  inst.: 2312960 (ipc=89.0) sim_rate=44480 (inst/sec) elapsed = 0:0:00:52 / Fri May 15 10:06:25 2015
GPGPU-Sim uArch: cycles simulated: 26500  inst.: 2359584 (ipc=89.0) sim_rate=44520 (inst/sec) elapsed = 0:0:00:53 / Fri May 15 10:06:26 2015
GPGPU-Sim PTX: 2400000 instructions simulated : ctaid=(21,0,0) tid=(63,0,0)
GPGPU-Sim uArch: cycles simulated: 27000  inst.: 2411008 (ipc=89.3) sim_rate=44648 (inst/sec) elapsed = 0:0:00:54 / Fri May 15 10:06:27 2015
GPGPU-Sim uArch: cycles simulated: 27500  inst.: 2459744 (ipc=89.4) sim_rate=44722 (inst/sec) elapsed = 0:0:00:55 / Fri May 15 10:06:28 2015
GPGPU-Sim PTX: 2500000 instructions simulated : ctaid=(61,0,0) tid=(63,0,0)
GPGPU-Sim uArch: cycles simulated: 28000  inst.: 2508224 (ipc=89.6) sim_rate=44789 (inst/sec) elapsed = 0:0:00:56 / Fri May 15 10:06:29 2015
GPGPU-Sim uArch: cycles simulated: 28500  inst.: 2551680 (ipc=89.5) sim_rate=44766 (inst/sec) elapsed = 0:0:00:57 / Fri May 15 10:06:30 2015
GPGPU-Sim PTX: 2600000 instructions simulated : ctaid=(0,0,0) tid=(31,0,0)
GPGPU-Sim uArch: cycles simulated: 29000  inst.: 2592256 (ipc=89.4) sim_rate=44694 (inst/sec) elapsed = 0:0:00:58 / Fri May 15 10:06:31 2015
GPGPU-Sim uArch: cycles simulated: 29500  inst.: 2640800 (ipc=89.5) sim_rate=44759 (inst/sec) elapsed = 0:0:00:59 / Fri May 15 10:06:32 2015
GPGPU-Sim PTX: 2700000 instructions simulated : ctaid=(61,0,0) tid=(63,0,0)
GPGPU-Sim uArch: cycles simulated: 30000  inst.: 2693120 (ipc=89.8) sim_rate=44885 (inst/sec) elapsed = 0:0:01:00 / Fri May 15 10:06:33 2015
GPGPU-Sim uArch: cycles simulated: 30500  inst.: 2736224 (ipc=89.7) sim_rate=44856 (inst/sec) elapsed = 0:0:01:01 / Fri May 15 10:06:34 2015
GPGPU-Sim uArch: cycles simulated: 31000  inst.: 2785408 (ipc=89.9) sim_rate=44212 (inst/sec) elapsed = 0:0:01:03 / Fri May 15 10:06:36 2015
GPGPU-Sim PTX: 2800000 instructions simulated : ctaid=(62,0,0) tid=(31,0,0)
GPGPU-Sim uArch: cycles simulated: 32000  inst.: 2872640 (ipc=89.8) sim_rate=44885 (inst/sec) elapsed = 0:0:01:04 / Fri May 15 10:06:37 2015
GPGPU-Sim PTX: 2900000 instructions simulated : ctaid=(37,0,0) tid=(63,0,0)
GPGPU-Sim uArch: cycles simulated: 32500  inst.: 2918656 (ipc=89.8) sim_rate=44222 (inst/sec) elapsed = 0:0:01:06 / Fri May 15 10:06:39 2015
GPGPU-Sim uArch: cycles simulated: 33000  inst.: 2969216 (ipc=90.0) sim_rate=44316 (inst/sec) elapsed = 0:0:01:07 / Fri May 15 10:06:40 2015
GPGPU-Sim PTX: 3000000 instructions simulated : ctaid=(39,0,0) tid=(31,0,0)
GPGPU-Sim uArch: cycles simulated: 33500  inst.: 3016960 (ipc=90.1) sim_rate=44367 (inst/sec) elapsed = 0:0:01:08 / Fri May 15 10:06:41 2015
GPGPU-Sim uArch: cycles simulated: 34000  inst.: 3057664 (ipc=89.9) sim_rate=44313 (inst/sec) elapsed = 0:0:01:09 / Fri May 15 10:06:42 2015
GPGPU-Sim PTX: 3100000 instructions simulated : ctaid=(56,0,0) tid=(63,0,0)
GPGPU-Sim uArch: cycles simulated: 35000  inst.: 3178432 (ipc=90.8) sim_rate=45406 (inst/sec) elapsed = 0:0:01:10 / Fri May 15 10:06:43 2015
GPGPU-Sim PTX: 3200000 instructions simulated : ctaid=(29,0,0) tid=(63,0,0)
GPGPU-Sim uArch: cycles simulated: 35500  inst.: 3253760 (ipc=91.7) sim_rate=45827 (inst/sec) elapsed = 0:0:01:11 / Fri May 15 10:06:44 2015
GPGPU-Sim PTX: 3300000 instructions simulated : ctaid=(45,0,0) tid=(63,0,0)
GPGPU-Sim uArch: cycles simulated: 36000  inst.: 3315168 (ipc=92.1) sim_rate=46044 (inst/sec) elapsed = 0:0:01:12 / Fri May 15 10:06:45 2015
GPGPU-Sim PTX: 3400000 instructions simulated : ctaid=(25,0,0) tid=(31,0,0)
GPGPU-Sim uArch: cycles simulated: 36500  inst.: 3401984 (ipc=93.2) sim_rate=45972 (inst/sec) elapsed = 0:0:01:14 / Fri May 15 10:06:47 2015
GPGPU-Sim PTX: 3500000 instructions simulated : ctaid=(48,0,0) tid=(63,0,0)
GPGPU-Sim uArch: cycles simulated: 37000  inst.: 3502016 (ipc=94.6) sim_rate=46693 (inst/sec) elapsed = 0:0:01:15 / Fri May 15 10:06:48 2015
GPGPU-Sim PTX: 3600000 instructions simulated : ctaid=(16,0,0) tid=(63,0,0)
GPGPU-Sim uArch: cycles simulated: 37500  inst.: 3608128 (ipc=96.2) sim_rate=47475 (inst/sec) elapsed = 0:0:01:16 / Fri May 15 10:06:49 2015
GPGPU-Sim PTX: 3700000 instructions simulated : ctaid=(17,0,0) tid=(63,0,0)
GPGPU-Sim uArch: cycles simulated: 38000  inst.: 3717184 (ipc=97.8) sim_rate=48275 (inst/sec) elapsed = 0:0:01:17 / Fri May 15 10:06:50 2015
GPGPU-Sim PTX: 3800000 instructions simulated : ctaid=(36,0,0) tid=(63,0,0)
GPGPU-Sim uArch: cycles simulated: 38500  inst.: 3823104 (ipc=99.3) sim_rate=49014 (inst/sec) elapsed = 0:0:01:18 / Fri May 15 10:06:51 2015
GPGPU-Sim PTX: 3900000 instructions simulated : ctaid=(47,0,0) tid=(31,0,0)
GPGPU-Sim uArch: cycles simulated: 39000  inst.: 3924000 (ipc=100.6) sim_rate=49670 (inst/sec) elapsed = 0:0:01:19 / Fri May 15 10:06:52 2015
GPGPU-Sim PTX: 4000000 instructions simulated : ctaid=(7,0,0) tid=(63,0,0)
GPGPU-Sim uArch: cycles simulated: 39500  inst.: 4033376 (ipc=102.1) sim_rate=50417 (inst/sec) elapsed = 0:0:01:20 / Fri May 15 10:06:53 2015
GPGPU-Sim PTX: 4100000 instructions simulated : ctaid=(27,0,0) tid=(31,0,0)
GPGPU-Sim uArch: cycles simulated: 40000  inst.: 4145632 (ipc=103.6) sim_rate=50556 (inst/sec) elapsed = 0:0:01:22 / Fri May 15 10:06:55 2015
GPGPU-Sim PTX: 4200000 instructions simulated : ctaid=(41,0,0) tid=(31,0,0)
GPGPU-Sim uArch: cycles simulated: 40500  inst.: 4260800 (ipc=105.2) sim_rate=51334 (inst/sec) elapsed = 0:0:01:23 / Fri May 15 10:06:56 2015
GPGPU-Sim PTX: 4300000 instructions simulated : ctaid=(18,0,0) tid=(31,0,0)
GPGPU-Sim uArch: cycles simulated: 41000  inst.: 4362592 (ipc=106.4) sim_rate=51935 (inst/sec) elapsed = 0:0:01:24 / Fri May 15 10:06:57 2015
GPGPU-Sim PTX: 4400000 instructions simulated : ctaid=(52,0,0) tid=(31,0,0)
GPGPU-Sim uArch: cycles simulated: 41500  inst.: 4466080 (ipc=107.6) sim_rate=52542 (inst/sec) elapsed = 0:0:01:25 / Fri May 15 10:06:58 2015
GPGPU-Sim PTX: 4500000 instructions simulated : ctaid=(48,0,0) tid=(31,0,0)
GPGPU-Sim PTX: 4600000 instructions simulated : ctaid=(9,0,0) tid=(31,0,0)
GPGPU-Sim uArch: cycles simulated: 42000  inst.: 4578880 (ipc=109.0) sim_rate=53242 (inst/sec) elapsed = 0:0:01:26 / Fri May 15 10:06:59 2015
GPGPU-Sim PTX: 4700000 instructions simulated : ctaid=(4,0,0) tid=(63,0,0)
GPGPU-Sim uArch: cycles simulated: 42500  inst.: 4691808 (ipc=110.4) sim_rate=53928 (inst/sec) elapsed = 0:0:01:27 / Fri May 15 10:07:00 2015
GPGPU-Sim PTX: 4800000 instructions simulated : ctaid=(1,0,0) tid=(63,0,0)
GPGPU-Sim uArch: cycles simulated: 43000  inst.: 4798048 (ipc=111.6) sim_rate=54523 (inst/sec) elapsed = 0:0:01:28 / Fri May 15 10:07:01 2015
GPGPU-Sim PTX: 4900000 instructions simulated : ctaid=(51,0,0) tid=(63,0,0)
GPGPU-Sim uArch: cycles simulated: 43500  inst.: 4901024 (ipc=112.7) sim_rate=54455 (inst/sec) elapsed = 0:0:01:30 / Fri May 15 10:07:03 2015
GPGPU-Sim PTX: 5000000 instructions simulated : ctaid=(36,0,0) tid=(63,0,0)
GPGPU-Sim uArch: cycles simulated: 44000  inst.: 5008896 (ipc=113.8) sim_rate=55042 (inst/sec) elapsed = 0:0:01:31 / Fri May 15 10:07:04 2015
GPGPU-Sim PTX: 5100000 instructions simulated : ctaid=(25,0,0) tid=(31,0,0)
GPGPU-Sim uArch: cycles simulated: 44500  inst.: 5115680 (ipc=115.0) sim_rate=55605 (inst/sec) elapsed = 0:0:01:32 / Fri May 15 10:07:05 2015
GPGPU-Sim PTX: 5200000 instructions simulated : ctaid=(47,0,0) tid=(63,0,0)
GPGPU-Sim uArch: cycles simulated: 45000  inst.: 5223712 (ipc=116.1) sim_rate=56168 (inst/sec) elapsed = 0:0:01:33 / Fri May 15 10:07:06 2015
GPGPU-Sim PTX: 5300000 instructions simulated : ctaid=(34,0,0) tid=(31,0,0)
GPGPU-Sim uArch: cycles simulated: 45500  inst.: 5319392 (ipc=116.9) sim_rate=56589 (inst/sec) elapsed = 0:0:01:34 / Fri May 15 10:07:07 2015
GPGPU-Sim PTX: 5400000 instructions simulated : ctaid=(12,0,0) tid=(31,0,0)
GPGPU-Sim uArch: cycles simulated: 46000  inst.: 5424192 (ipc=117.9) sim_rate=57096 (inst/sec) elapsed = 0:0:01:35 / Fri May 15 10:07:08 2015
GPGPU-Sim PTX: 5500000 instructions simulated : ctaid=(38,0,0) tid=(63,0,0)
GPGPU-Sim uArch: cycles simulated: 46500  inst.: 5529984 (ipc=118.9) sim_rate=57604 (inst/sec) elapsed = 0:0:01:36 / Fri May 15 10:07:09 2015
GPGPU-Sim PTX: 5600000 instructions simulated : ctaid=(59,0,0) tid=(63,0,0)
GPGPU-Sim uArch: cycles simulated: 47000  inst.: 5639040 (ipc=120.0) sim_rate=57541 (inst/sec) elapsed = 0:0:01:38 / Fri May 15 10:07:11 2015
GPGPU-Sim PTX: 5700000 instructions simulated : ctaid=(39,0,0) tid=(63,0,0)
GPGPU-Sim uArch: cycles simulated: 47500  inst.: 5744672 (ipc=120.9) sim_rate=58026 (inst/sec) elapsed = 0:0:01:39 / Fri May 15 10:07:12 2015
GPGPU-Sim PTX: 5800000 instructions simulated : ctaid=(22,0,0) tid=(31,0,0)
GPGPU-Sim uArch: cycles simulated: 48000  inst.: 5850624 (ipc=121.9) sim_rate=58506 (inst/sec) elapsed = 0:0:01:40 / Fri May 15 10:07:13 2015
GPGPU-Sim PTX: 5900000 instructions simulated : ctaid=(30,0,0) tid=(31,0,0)
GPGPU-Sim uArch: cycles simulated: 48500  inst.: 5962944 (ipc=122.9) sim_rate=59039 (inst/sec) elapsed = 0:0:01:41 / Fri May 15 10:07:14 2015
GPGPU-Sim PTX: 6000000 instructions simulated : ctaid=(41,0,0) tid=(63,0,0)
GPGPU-Sim uArch: cycles simulated: 49000  inst.: 6071520 (ipc=123.9) sim_rate=59524 (inst/sec) elapsed = 0:0:01:42 / Fri May 15 10:07:15 2015
GPGPU-Sim PTX: 6100000 instructions simulated : ctaid=(59,0,0) tid=(31,0,0)
GPGPU-Sim uArch: cycles simulated: 49500  inst.: 6174688 (ipc=124.7) sim_rate=59948 (inst/sec) elapsed = 0:0:01:43 / Fri May 15 10:07:16 2015
GPGPU-Sim PTX: 6200000 instructions simulated : ctaid=(1,0,0) tid=(31,0,0)
GPGPU-Sim PTX: 6300000 instructions simulated : ctaid=(12,0,0) tid=(31,0,0)
GPGPU-Sim uArch: cycles simulated: 50000  inst.: 6285312 (ipc=125.7) sim_rate=60435 (inst/sec) elapsed = 0:0:01:44 / Fri May 15 10:07:17 2015
GPGPU-Sim PTX: 6400000 instructions simulated : ctaid=(44,0,0) tid=(63,0,0)
GPGPU-Sim uArch: cycles simulated: 50500  inst.: 6396768 (ipc=126.7) sim_rate=60346 (inst/sec) elapsed = 0:0:01:46 / Fri May 15 10:07:19 2015
GPGPU-Sim PTX: 6500000 instructions simulated : ctaid=(12,0,0) tid=(63,0,0)
GPGPU-Sim uArch: cycles simulated: 51000  inst.: 6511200 (ipc=127.7) sim_rate=60852 (inst/sec) elapsed = 0:0:01:47 / Fri May 15 10:07:20 2015
GPGPU-Sim PTX: 6600000 instructions simulated : ctaid=(10,0,0) tid=(63,0,0)
GPGPU-Sim uArch: cycles simulated: 51500  inst.: 6622368 (ipc=128.6) sim_rate=61318 (inst/sec) elapsed = 0:0:01:48 / Fri May 15 10:07:21 2015
GPGPU-Sim PTX: 6700000 instructions simulated : ctaid=(2,0,0) tid=(63,0,0)
GPGPU-Sim uArch: cycles simulated: 52000  inst.: 6730240 (ipc=129.4) sim_rate=61745 (inst/sec) elapsed = 0:0:01:49 / Fri May 15 10:07:22 2015
GPGPU-Sim PTX: 6800000 instructions simulated : ctaid=(22,0,0) tid=(31,0,0)
GPGPU-Sim uArch: cycles simulated: 52500  inst.: 6838560 (ipc=130.3) sim_rate=62168 (inst/sec) elapsed = 0:0:01:50 / Fri May 15 10:07:23 2015
GPGPU-Sim PTX: 6900000 instructions simulated : ctaid=(23,0,0) tid=(63,0,0)
GPGPU-Sim uArch: cycles simulated: 53000  inst.: 6950240 (ipc=131.1) sim_rate=62614 (inst/sec) elapsed = 0:0:01:51 / Fri May 15 10:07:24 2015
GPGPU-Sim PTX: 7000000 instructions simulated : ctaid=(2,0,0) tid=(31,0,0)
GPGPU-Sim uArch: cycles simulated: 53500  inst.: 7063680 (ipc=132.0) sim_rate=63068 (inst/sec) elapsed = 0:0:01:52 / Fri May 15 10:07:25 2015
GPGPU-Sim PTX: 7100000 instructions simulated : ctaid=(13,0,0) tid=(31,0,0)
GPGPU-Sim PTX: 7200000 instructions simulated : ctaid=(62,0,0) tid=(31,0,0)
GPGPU-Sim uArch: cycles simulated: 54000  inst.: 7177984 (ipc=132.9) sim_rate=62964 (inst/sec) elapsed = 0:0:01:54 / Fri May 15 10:07:27 2015
GPGPU-Sim PTX: 7300000 instructions simulated : ctaid=(29,0,0) tid=(31,0,0)
GPGPU-Sim uArch: cycles simulated: 54500  inst.: 7289696 (ipc=133.8) sim_rate=63388 (inst/sec) elapsed = 0:0:01:55 / Fri May 15 10:07:28 2015
GPGPU-Sim PTX: 7400000 instructions simulated : ctaid=(62,0,0) tid=(63,0,0)
GPGPU-Sim uArch: cycles simulated: 55000  inst.: 7386080 (ipc=134.3) sim_rate=63673 (inst/sec) elapsed = 0:0:01:56 / Fri May 15 10:07:29 2015
GPGPU-Sim PTX: 7500000 instructions simulated : ctaid=(29,0,0) tid=(63,0,0)
GPGPU-Sim uArch: cycles simulated: 55500  inst.: 7491072 (ipc=135.0) sim_rate=64026 (inst/sec) elapsed = 0:0:01:57 / Fri May 15 10:07:30 2015
GPGPU-Sim PTX: 7600000 instructions simulated : ctaid=(47,0,0) tid=(31,0,0)
GPGPU-Sim uArch: cycles simulated: 56000  inst.: 7602816 (ipc=135.8) sim_rate=64430 (inst/sec) elapsed = 0:0:01:58 / Fri May 15 10:07:31 2015
GPGPU-Sim PTX: 7700000 instructions simulated : ctaid=(57,0,0) tid=(63,0,0)
GPGPU-Sim uArch: cycles simulated: 56500  inst.: 7712000 (ipc=136.5) sim_rate=64806 (inst/sec) elapsed = 0:0:01:59 / Fri May 15 10:07:32 2015
GPGPU-Sim PTX: 7800000 instructions simulated : ctaid=(9,0,0) tid=(63,0,0)
GPGPU-Sim uArch: cycles simulated: 57000  inst.: 7823968 (ipc=137.3) sim_rate=65199 (inst/sec) elapsed = 0:0:02:00 / Fri May 15 10:07:33 2015
GPGPU-Sim PTX: 7900000 instructions simulated : ctaid=(63,0,0) tid=(63,0,0)
GPGPU-Sim uArch: cycles simulated: 57500  inst.: 7935776 (ipc=138.0) sim_rate=65584 (inst/sec) elapsed = 0:0:02:01 / Fri May 15 10:07:34 2015
GPGPU-Sim PTX: 8000000 instructions simulated : ctaid=(34,0,0) tid=(63,0,0)
GPGPU-Sim uArch: cycles simulated: 58000  inst.: 8048192 (ipc=138.8) sim_rate=65432 (inst/sec) elapsed = 0:0:02:03 / Fri May 15 10:07:36 2015
GPGPU-Sim PTX: 8100000 instructions simulated : ctaid=(63,0,0) tid=(31,0,0)
GPGPU-Sim uArch: cycles simulated: 58500  inst.: 8154784 (ipc=139.4) sim_rate=65764 (inst/sec) elapsed = 0:0:02:04 / Fri May 15 10:07:37 2015
GPGPU-Sim PTX: 8200000 instructions simulated : ctaid=(25,0,0) tid=(31,0,0)
GPGPU-Sim uArch: cycles simulated: 59000  inst.: 8265856 (ipc=140.1) sim_rate=66126 (inst/sec) elapsed = 0:0:02:05 / Fri May 15 10:07:38 2015
GPGPU-Sim PTX: 8300000 instructions simulated : ctaid=(4,0,0) tid=(63,0,0)
GPGPU-Sim PTX: 8400000 instructions simulated : ctaid=(57,0,0) tid=(63,0,0)
GPGPU-Sim uArch: cycles simulated: 59500  inst.: 8378112 (ipc=140.8) sim_rate=66492 (inst/sec) elapsed = 0:0:02:06 / Fri May 15 10:07:39 2015
GPGPU-Sim PTX: 8500000 instructions simulated : ctaid=(58,0,0) tid=(31,0,0)
GPGPU-Sim uArch: cycles simulated: 60000  inst.: 8491424 (ipc=141.5) sim_rate=66861 (inst/sec) elapsed = 0:0:02:07 / Fri May 15 10:07:40 2015
GPGPU-Sim PTX: 8600000 instructions simulated : ctaid=(15,0,0) tid=(31,0,0)
GPGPU-Sim uArch: cycles simulated: 60500  inst.: 8596992 (ipc=142.1) sim_rate=66643 (inst/sec) elapsed = 0:0:02:09 / Fri May 15 10:07:42 2015
GPGPU-Sim PTX: 8700000 instructions simulated : ctaid=(34,0,0) tid=(31,0,0)
GPGPU-Sim uArch: cycles simulated: 61000  inst.: 8708032 (ipc=142.8) sim_rate=66984 (inst/sec) elapsed = 0:0:02:10 / Fri May 15 10:07:43 2015
GPGPU-Sim PTX: 8800000 instructions simulated : ctaid=(57,0,0) tid=(63,0,0)
GPGPU-Sim uArch: cycles simulated: 61500  inst.: 8821024 (ipc=143.4) sim_rate=67336 (inst/sec) elapsed = 0:0:02:11 / Fri May 15 10:07:44 2015
GPGPU-Sim PTX: 8900000 instructions simulated : ctaid=(1,0,0) tid=(63,0,0)
GPGPU-Sim uArch: cycles simulated: 62000  inst.: 8934880 (ipc=144.1) sim_rate=67688 (inst/sec) elapsed = 0:0:02:12 / Fri May 15 10:07:45 2015
GPGPU-Sim PTX: 9000000 instructions simulated : ctaid=(1,0,0) tid=(31,0,0)
GPGPU-Sim uArch: cycles simulated: 62500  inst.: 9047040 (ipc=144.8) sim_rate=68022 (inst/sec) elapsed = 0:0:02:13 / Fri May 15 10:07:46 2015
GPGPU-Sim PTX: 9100000 instructions simulated : ctaid=(6,0,0) tid=(63,0,0)
GPGPU-Sim uArch: cycles simulated: 63000  inst.: 9155232 (ipc=145.3) sim_rate=68322 (inst/sec) elapsed = 0:0:02:14 / Fri May 15 10:07:47 2015
GPGPU-Sim PTX: 9200000 instructions simulated : ctaid=(48,0,0) tid=(31,0,0)
GPGPU-Sim uArch: cycles simulated: 63500  inst.: 9266016 (ipc=145.9) sim_rate=68132 (inst/sec) elapsed = 0:0:02:16 / Fri May 15 10:07:49 2015
GPGPU-Sim PTX: 9300000 instructions simulated : ctaid=(43,0,0) tid=(31,0,0)
GPGPU-Sim PTX: 9400000 instructions simulated : ctaid=(40,0,0) tid=(31,0,0)
GPGPU-Sim uArch: cycles simulated: 64000  inst.: 9378112 (ipc=146.5) sim_rate=68453 (inst/sec) elapsed = 0:0:02:17 / Fri May 15 10:07:50 2015
GPGPU-Sim PTX: 9500000 instructions simulated : ctaid=(62,0,0) tid=(63,0,0)
GPGPU-Sim uArch: cycles simulated: 64500  inst.: 9488224 (ipc=147.1) sim_rate=68755 (inst/sec) elapsed = 0:0:02:18 / Fri May 15 10:07:51 2015
GPGPU-Sim PTX: 9600000 instructions simulated : ctaid=(48,0,0) tid=(63,0,0)
GPGPU-Sim uArch: cycles simulated: 65000  inst.: 9582560 (ipc=147.4) sim_rate=68939 (inst/sec) elapsed = 0:0:02:19 / Fri May 15 10:07:52 2015
GPGPU-Sim PTX: 9700000 instructions simulated : ctaid=(50,0,0) tid=(63,0,0)
GPGPU-Sim uArch: cycles simulated: 65500  inst.: 9687712 (ipc=147.9) sim_rate=69197 (inst/sec) elapsed = 0:0:02:20 / Fri May 15 10:07:53 2015
GPGPU-Sim PTX: 9800000 instructions simulated : ctaid=(43,0,0) tid=(63,0,0)
GPGPU-Sim uArch: cycles simulated: 66000  inst.: 9796896 (ipc=148.4) sim_rate=69481 (inst/sec) elapsed = 0:0:02:21 / Fri May 15 10:07:54 2015
GPGPU-Sim PTX: 9900000 instructions simulated : ctaid=(56,0,0) tid=(63,0,0)
GPGPU-Sim uArch: cycles simulated: 66500  inst.: 9909440 (ipc=149.0) sim_rate=69784 (inst/sec) elapsed = 0:0:02:22 / Fri May 15 10:07:55 2015
[...]
mf_lat_table:0 	0 	0 	0 	0 	0 	0 	114348 	1825175 	39160 	8354 	8 	0 	0 	0 	0 	0 	0 	0 	0 	0 	0 	0 	0 	0 	0 	0 	0 	0 	0 	0 	0 	
icnt2mem_lat_table:0 	0 	0 	2369558 	500673 	10561 	10698 	9619 	21602 	1048 	0 	0 	0 	0 	0 	0 	0 	0 	0 	0 	0 	0 	0 	0 	
icnt2sh_lat_table:0 	0 	0 	1387035 	209282 	872 	0 	0 	0 	0 	0 	917 	2307 	4826 	10631 	1799 	0 	0 	9 	44 	142027 	225591 	1705 	0 	
mf_lat_pw_table:0 	0 	0 	0 	0 	0 	0 	1425 	9023 	116 	14 	0 	0 	0 	0 	0 	0 	0 	0 	0 	0 	0 	0 	0 	0 	0 	0 	0 	0 	0 	0 	0 	
maximum concurrent accesses to same row:
dram[0]:        56        56        50        56        46        42        52        48        48        44        44        44        44        34        38        34 
dram[1]:        56        60        56        60        60        50        56        56        56        52        58        36        50        54        46        46 
dram[2]:        56        56        52        52        56        46        38        44        36        38        36        36        36        42        44        40 
dram[3]:        52        56        52        54        56        44        40        56        46        40        44        50        36        34        38        32 
dram[4]:        56        60        60        56        48        56        54        56        52        46        46        48        50        48        50        44 
dram[5]:        56        58        56        56        42        42        44        42        44        40        40        40        40        40        50        40 
maximum service time to same row:
dram[0]:     72818     41713     63247     31781     51652     40288     38491     58981     57028     29663     29153     71692     27525     21993     21466     27563 
dram[1]:     28569     38222     40127     33272     36070     34964     62970     50113     36720     28847     31084     23769     20310     15441     23574     42344 
dram[2]:     34637     56685     36942     37512     22390     78279     46157     36051     19884     37779     37587     21145     12622     26819     40547     18148 
dram[3]:     38856     57798     32047     39816     86858     60781     63285     22115     34010     26769     28888     40716     35661     13572     14383     70485 
dram[4]:     22360     14440     29293     37972     76479     30928     35980     30560     56839     21117     32815     15703     21397     36535     30295     18146 
dram[5]:     32303     38053     40937     51628     72417     41622     61772     37400     20709     30066     16572     24293     18328     28859     36675     23783 
average row accesses per activate:
dram[0]:  1.629599  1.653172  1.682239  1.691447  1.674411  1.666252  1.649613  1.677531  1.660215  1.649307  1.633087  1.627827  1.606884  1.633346  1.618639  1.585428 
dram[1]:  1.611935  1.636057  1.673186  1.665310  1.651420  1.660226  1.648382  1.654956  1.629173  1.635455  1.616003  1.607101  1.582606  1.613010  1.604896  1.577255 
dram[2]:  1.592217  1.601048  1.636874  1.651528  1.633738  1.626058  1.613981  1.619603  1.610972  1.601025  1.578992  1.602699  1.586563  1.575056  1.555889  1.572785 
dram[3]:  1.635386  1.655806  1.686379  1.673857  1.672112  1.676604  1.663749  1.664461  1.656264  1.639068  1.624600  1.646632  1.625406  1.604737  1.604544  1.596033 
dram[4]:  1.600147  1.657432  1.694138  1.670708  1.655630  1.664791  1.650049  1.654027  1.634248  1.635511  1.615229  1.623000  1.593267  1.605413  1.606034  1.583171 
dram[5]:  1.589167  1.619881  1.628436  1.635619  1.615633  1.641188  1.619088  1.616039  1.588897  1.610941  1.581575  1.595119  1.577958  1.582609  1.561002  1.560598 
average row locality = 3261043/2007299 = 1.624593
number of total memory accesses made:
dram[0]:         0         0         0         0         0         0         0         0         0         0         0         0         0         0         0         0 
dram[1]:         0         0         0         0         0         0         0         0         0         0         0         0         0         0         0         0 
dram[2]:         0         0         0         0         0         0         0         0         0         0         0         0         0         0         0         0 
dram[3]:         0         0         0         0         0         0         0         0         0         0         0         0         0         0         0         0 
dram[4]:         0         0         0         0         0         0         0         0         0         0         0         0         0         0         0         0 
dram[5]:         0         0         0         0         0         0         0         0         0         0         0         0         0         0         0         0 
total accesses: 0
min_bank_accesses = 0!
min_chip_accesses = 0!
number of total read accesses:
dram[0]:     19935     19825     19651     19297     19539     20720     20861     20088     20747     21044     21069     21456     22191     21218     21631     22022 
dram[1]:     19854     19937     19838     19378     19668     20890     20904     20122     20881     21281     21260     21777     22255     21477     21966     22335 
dram[2]:     21047     20026     20024     20137     20587     21275     21629     20592     21502     21730     21807     22261     23158     21883     21931     23188 
dram[3]:     20338     19110     19178     20006     20188     20012     20844     20255     20388     21331     21886     20979     21593     21461     21648     22287 
dram[4]:     20133     19645     19556     20117     20148     20393     20916     20336     20463     21693     21982     20952     21592     21935     22128     22231 
dram[5]:     20689     20129     19654     20792     20779     20623     21337     21022     20955     22324     22506     21368     22035     22574     22631     22717 
total reads: 2015753
bank skew: 23188/19110 = 1.21
chip skew: 342777/331294 = 1.03
number of total write accesses:
dram[0]:     12085     11863     11785     11396     11739     12755     12801     12030     12791     12968     12958     13456     14131     13128     13453     14056 
dram[1]:     12317     12079     11986     11715     12031     12879     13023     12383     13084     13232     13337     13801     14376     13485     13828     14445 
dram[2]:     12751     12059     12044     11972     12274     13121     13304     12456     13121     13563     13624     13843     14580     13718     13884     14735 
dram[3]:     12355     11433     11391     12040     12159     12157     12802     12187     12411     13432     13657     12856     13480     13503     13591     14168 
dram[4]:     12518     11765     11628     12268     12405     12450     12976     12465     12758     13688     13973     13131     13761     13893     14019     14402 
dram[5]:     12728     11990     11682     12537     12747     12465     13067     12771     12960     13898     14215     13211     13731     14228     14371     14522 
total reads: 1245290
bank skew: 14735/11391 = 1.29
chip skew: 211123/203395 = 1.04
average mf latency per bank:
dram[0]:        178       177       180       181       182       180       178       179       176       177       176       177       176       177       175       177
dram[1]:        182       179       181       184       183       180       180       182       179       178       178       177       178       178       176       178
dram[2]:        180       183       185       183       184       183       181       184       180       179       181       179       178       181       181       178
dram[3]:        178       180       182       180       182       181       178       179       178       178       177       176       177       179       178       176
dram[4]:        180       180       181       181       183       180       179       181       179       177       176       179       179       178       176       178
dram[5]:        180       181       185       182       184       183       181       181       181       177       178       180       180       178       178       179
maximum mf latency per bank:
dram[0]:       1291      1557      1259      1448      1603      1821      1483      1379      1323      1424      1903      1505      1818      1573      1313      1340
dram[1]:       1414      1577      1624      1579      1707      1739      1413      2015      1502      1433      2235      1793      1375      2451      1713      1592
dram[2]:       1464      1498      1769      1389      1445      1526      1601      1511      1455      1593      1512      1813      1725      1647      1902      1797
dram[3]:       1457      1554      1445      1611      1510      1454      1384      2076      2168      1912      1592      2170      1693      2042      1457      1362
dram[4]:       1430      1438      1805      1361      1780      1801      1468      1450      1391      1620      1780      1429      1937      2055      1436      1545
dram[5]:       1472      1333      1392      1450      1668      1631      1643      1524      1544      1866      1564      2187      2011      1647      1637      1508

Number of Memory Banks Accessed per Memory Operation per Warp (from 0):
0	0	0	0	0	0	0	0	0	0	0	0	0	0	0	0	0	0	0	0	0	0	0	0	0	0	0	0	0	0	0	0	0	0	0	0	0	0	0	0	0	0	0	0	0	0	0	0	0	0	0	0	0	0	0	0	0	0	0	0	0	0	0	0	0	0	0	0	0	0	0	0	0	0	0	0	0	0	0	0	0	0	0	0	0	0	0	0	0	0	0	0	0	0	0	0	
Average # of Memory Banks Accessed per Memory Operation per Warp=-nan

position of mrq chosen
0	0	0	0	0	0	0	0	0	0	0	0	0	0	0	0	

average position of mrq chosen = -nan
Memory Partition 0: 
Cache L2_bank_000:
MSHR contents
MSHR: tag=0x80007c80, atomic=0 1 entries : 0x7f1b7f5a6a80 :  mf: uid=23219716, sid05:w09, part=0, addr=0x80007c80, load , size=128, unknown  status = IN_PARTITION_DRAM (5292115), 

Cache L2_bank_001:
MSHR contents

In Dram Latency Queue (total = 0): 
DRAM[0]: 16 bks, busW=4 BL=8 CL=12, tRRD=2 tCCD=6, tRCD=12 tRAS=28 tRP=12 tRC=40
n_cmd=6985595 n_nop=5265949 n_act=325142 n_pre=325126 n_req=534689 n_rd=662588 n_write=406790 bw_util=0.3062
n_activity=5886978 dram_eff=0.3633
bk0: 39870a 5952243i bk1: 39650a 5962491i bk2: 39302a 5977447i bk3: 38594a 6002012i bk4: 39078a 5980137i bk5: 41440a 5899274i bk6: 41722a 5881741i bk7: 40176a 5930292i bk8: 41494a 5927318i bk9: 42088a 5900080i bk10: 42138a 5888378i bk11: 42912a 5853670i bk12: 44382a 5787217i bk13: 42436a 5845776i bk14: 43262a 5813156i bk15: 44044a 5759979i 
dram_util_bins: 0 0 0 0 0 0 0 0 0 0
dram_eff_bins: 0 0 0 0 0 0 0 0 0 0
mrqq: max=16 avg=1.46101
Memory Partition 1: 
Cache L2_bank_002:
MSHR contents

Cache L2_bank_003:
MSHR contents

In Dram Latency Queue (total = 0): 
DRAM[1]: 16 bks, busW=4 BL=8 CL=12, tRRD=2 tCCD=6, tRCD=12 tRAS=28 tRP=12 tRC=40
n_cmd=6985595 n_nop=5236127 n_act=332918 n_pre=332902 n_req=541824 n_rd=667646 n_write=416002 bw_util=0.3103
n_activity=6008489 dram_eff=0.3607
bk0: 39708a 5937139i bk1: 39874a 5947115i bk2: 39676a 5962574i bk3: 38756a 5986006i bk4: 39336a 5955952i bk5: 41780a 5882694i bk6: 41808a 5875969i bk7: 40244a 5917449i bk8: 41762a 5906820i bk9: 42562a 5879593i bk10: 42520a 5865837i bk11: 43554a 5820246i bk12: 44510a 5768673i bk13: 42954a 5820821i bk14: 43932a 5780586i bk15: 44670a 5731853i 
dram_util_bins: 0 0 0 0 0 0 0 0 0 0
dram_eff_bins: 0 0 0 0 0 0 0 0 0 0
mrqq: max=16 avg=1.48434
Memory Partition 2: 
Cache L2_bank_004:
MSHR contents

Cache L2_bank_005:
MSHR contents

In Dram Latency Queue (total = 0): 
DRAM[2]: 16 bks, busW=4 BL=8 CL=12, tRRD=2 tCCD=6, tRCD=12 tRAS=28 tRP=12 tRC=40
n_cmd=6985595 n_nop=5186681 n_act=345639 n_pre=345623 n_req=553826 n_rd=685554 n_write=422098 bw_util=0.3171
n_activity=5955074 dram_eff=0.372
bk0: 42094a 5860712i bk1: 40052a 5912938i bk2: 40048a 5925051i bk3: 40274a 5922784i bk4: 41174a 5885959i bk5: 42550a 5829512i bk6: 43258a 5804091i bk7: 41184a 5856519i bk8: 43004a 5853104i bk9: 43460a 5824976i bk10: 43614a 5803168i bk11: 44522a 5771329i bk12: 46316a 5701196i bk13: 43766a 5765619i bk14: 43862a 5746084i bk15: 46376a 5659121i 
dram_util_bins: 0 0 0 0 0 0 0 0 0 0
dram_eff_bins: 0 0 0 0 0 0 0 0 0 0
mrqq: max=16 avg=1.59637
Memory Partition 3: 
Cache L2_bank_006:
MSHR contents

Cache L2_bank_007:
MSHR contents

In Dram Latency Queue (total = 0): 
DRAM[3]: 16 bks, busW=4 BL=8 CL=12, tRRD=2 tCCD=6, tRCD=12 tRAS=28 tRP=12 tRC=40
n_cmd=6985595 n_nop=5264235 n_act=325562 n_pre=325546 n_req=535126 n_rd=663008 n_write=407244 bw_util=0.3064
n_activity=5883264 dram_eff=0.3638
bk0: 40676a 5931090i bk1: 38220a 6002117i bk2: 38356a 6008989i bk3: 40012a 5953918i bk4: 40376a 5937137i bk5: 40024a 5945029i bk6: 41688a 5889155i bk7: 40510a 5917327i bk8: 40776a 5957423i bk9: 42662a 5876998i bk10: 43772a 5828524i bk11: 41958a 5884403i bk12: 43186a 5832916i bk13: 42922a 5811714i bk14: 43296a 5794048i bk15: 44574a 5747382i 
dram_util_bins: 0 0 0 0 0 0 0 0 0 0
dram_eff_bins: 0 0 0 0 0 0 0 0 0 0
mrqq: max=16 avg=1.46951
Memory Partition 4: 
Cache L2_bank_008:
MSHR contents

Cache L2_bank_009:
MSHR contents

In Dram Latency Queue (total = 0): 
DRAM[4]: 16 bks, busW=4 BL=8 CL=12, tRRD=2 tCCD=6, tRCD=12 tRAS=28 tRP=12 tRC=40
n_cmd=6985595 n_nop=5236409 n_act=332281 n_pre=332265 n_req=542320 n_rd=668440 n_write=416200 bw_util=0.3105
n_activity=6010446 dram_eff=0.3609
bk0: 40266a 5920718i bk1: 39290a 5976042i bk2: 39112a 5987532i bk3: 40234a 5943627i bk4: 40296a 5929347i bk5: 40786a 5916650i bk6: 41832a 5878077i bk7: 40672a 5902611i bk8: 40926a 5930236i bk9: 43386a 5855464i bk10: 43964a 5818382i bk11: 41904a 5870308i bk12: 43184a 5810547i bk13: 43870a 5790396i bk14: 44256a 5771611i bk15: 44462a 5741811i 
dram_util_bins: 0 0 0 0 0 0 0 0 0 0
dram_eff_bins: 0 0 0 0 0 0 0 0 0 0
mrqq: max=16 avg=1.4925
Memory Partition 5: 
Cache L2_bank_010:
MSHR contents

Cache L2_bank_011:
MSHR contents

In Dram Latency Queue (total = 0): 
DRAM[5]: 16 bks, busW=4 BL=8 CL=12, tRRD=2 tCCD=6, tRCD=12 tRAS=28 tRP=12 tRC=40
n_cmd=6985595 n_nop=5187575 n_act=345760 n_pre=345744 n_req=553258 n_rd=684270 n_write=422246 bw_util=0.3168
n_activity=5956450 dram_eff=0.3715
bk0: 41378a 5874466i bk1: 40258a 5918209i bk2: 39308a 5949316i bk3: 41584a 5874331i bk4: 41558a 5860789i bk5: 41246a 5874806i bk6: 42674a 5825136i bk7: 42044a 5834612i bk8: 41910a 5875120i bk9: 44648a 5794868i bk10: 45012a 5757038i bk11: 42736a 5824626i bk12: 44070a 5766516i bk13: 45148a 5729189i bk14: 45262a 5705199i bk15: 45434a 5680666i 
dram_util_bins: 0 0 0 0 0 0 0 0 0 0
dram_eff_bins: 0 0 0 0 0 0 0 0 0 0
mrqq: max=16 avg=1.58871

========= L2 cache stats =========
L2_cache_bank[0]: Access = 239931, Miss = 165624, Miss_rate = 0.690, Pending_hits = 3, Reservation_fails = 149
L2_cache_bank[1]: Access = 239601, Miss = 165670, Miss_rate = 0.691, Pending_hits = 12, Reservation_fails = 421
L2_cache_bank[2]: Access = 242504, Miss = 166626, Miss_rate = 0.687, Pending_hits = 5, Reservation_fails = 123
L2_cache_bank[3]: Access = 242180, Miss = 167197, Miss_rate = 0.690, Pending_hits = 13, Reservation_fails = 524
L2_cache_bank[4]: Access = 249019, Miss = 171685, Miss_rate = 0.689, Pending_hits = 3, Reservation_fails = 124
L2_cache_bank[5]: Access = 248417, Miss = 171092, Miss_rate = 0.689, Pending_hits = 3, Reservation_fails = 90
L2_cache_bank[6]: Access = 239931, Miss = 166063, Miss_rate = 0.692, Pending_hits = 2, Reservation_fails = 11
L2_cache_bank[7]: Access = 239755, Miss = 165441, Miss_rate = 0.690, Pending_hits = 8, Reservation_fails = 62
L2_cache_bank[8]: Access = 242513, Miss = 166918, Miss_rate = 0.688, Pending_hits = 0, Reservation_fails = 17
L2_cache_bank[9]: Access = 242444, Miss = 167302, Miss_rate = 0.690, Pending_hits = 2, Reservation_fails = 12
L2_cache_bank[10]: Access = 248698, Miss = 170586, Miss_rate = 0.686, Pending_hits = 6, Reservation_fails = 181
L2_cache_bank[11]: Access = 248766, Miss = 171549, Miss_rate = 0.690, Pending_hits = 0, Reservation_fails = 18
L2_total_cache_accesses = 2923759
L2_total_cache_misses = 2015753
L2_total_cache_miss_rate = 0.6894
L2_total_cache_pending_hits = 57
L2_total_cache_reservation_fails = 1732
L2_total_cache_breakdown:
	L2_cache_stats_breakdown[LOCAL_ACC_R][HIT] = 98934
	L2_cache_stats_breakdown[LOCAL_ACC_R][HIT_RESERVED] = 6
	L2_cache_stats_breakdown[LOCAL_ACC_R][MISS] = 1498099
	L2_cache_stats_breakdown[LOCAL_ACC_R][RESERVATION_FAIL] = 66
	L2_cache_stats_breakdown[CONST_ACC_R][HIT] = 131
	L2_cache_stats_breakdown[CONST_ACC_R][HIT_RESERVED] = 11
	L2_cache_stats_breakdown[CONST_ACC_R][MISS] = 8
	L2_cache_stats_breakdown[CONST_ACC_R][RESERVATION_FAIL] = 308
	L2_cache_stats_breakdown[GLOBAL_ACC_W][MISS] = 384
	L2_cache_stats_breakdown[LOCAL_ACC_W][HIT] = 3033
	L2_cache_stats_breakdown[LOCAL_ACC_W][MISS] = 386439
	L2_cache_stats_breakdown[LOCAL_ACC_W][RESERVATION_FAIL] = 403
	L2_cache_stats_breakdown[L1_WRBK_ACC][HIT] = 805369
	L2_cache_stats_breakdown[L1_WRBK_ACC][MISS] = 130745
	L2_cache_stats_breakdown[L1_WRBK_ACC][RESERVATION_FAIL] = 31
	L2_cache_stats_breakdown[INST_ACC_R][HIT] = 482
	L2_cache_stats_breakdown[INST_ACC_R][HIT_RESERVED] = 40
	L2_cache_stats_breakdown[INST_ACC_R][MISS] = 78
	L2_cache_stats_breakdown[INST_ACC_R][RESERVATION_FAIL] = 924
L2_cache_data_port_util = 0.095
L2_cache_fill_port_util = 0.127

icnt_total_pkts_mem_to_simt=8378501
icnt_total_pkts_simt_to_mem=8227639
LD_mem_lat_dist  0 0 0 0 0 0 0 0 0 0 0 0 0 0 0 0 0 0 0 0 0 0 0 0 0 0 0
ST_mem_lat_dist  0 0 0 0 0 0 0 0 0 0 0 0 0 0 0 0 0 0 0 0 0 0 0 0 0 0 0
----------------------------Interconnect-DETAILS--------------------------------
Class 0:
Packet latency average = 10.2897
	minimum = 6
	maximum = 452
Network latency average = 9.8226
	minimum = 6
	maximum = 423
Slowest packet = 1008779
Flit latency average = 7.6858
	minimum = 6
	maximum = 419
Slowest flit = 3635419
Fragmentation average = 0.0202296
	minimum = 0
	maximum = 393
Injected packet rate average = 0.0384553
	minimum = 0.0356434 (at node 18)
	maximum = 0.0471308 (at node 5)
Accepted packet rate average = 0.0384553
	minimum = 0.0271671 (at node 4)
	maximum = 0.0519219 (at node 19)
Injected flit rate average = 0.127817
	minimum = 0.103567 (at node 0)
	maximum = 0.154407 (at node 19)
Accepted flit rate average= 0.127817
	minimum = 0.112066 (at node 4)
	maximum = 0.14267 (at node 19)
Injected packet length average = 3.32378
Accepted packet length average = 3.32378
Total in-flight flits = 0 (0 measured)
====== Overall Traffic Statistics ======
====== Traffic class 0 ======
Packet latency average = 10.7056 (2 samples)
	minimum = 6 (2 samples)
	maximum = 488 (2 samples)
Network latency average = 10.1626 (2 samples)
	minimum = 6 (2 samples)
	maximum = 471 (2 samples)
Flit latency average = 7.90772 (2 samples)
	minimum = 6 (2 samples)
	maximum = 467 (2 samples)
Fragmentation average = 0.0504843 (2 samples)
	minimum = 0 (2 samples)
	maximum = 406.5 (2 samples)
Injected packet rate average = 0.031406 (2 samples)
	minimum = 0.027212 (2 samples)
	maximum = 0.0402744 (2 samples)
Accepted packet rate average = 0.031406 (2 samples)
	minimum = 0.0207438 (2 samples)
	maximum = 0.0443891 (2 samples)
Injected flit rate average = 0.107791 (2 samples)
	minimum = 0.0924746 (2 samples)
	maximum = 0.128074 (2 samples)
Accepted flit rate average = 0.107791 (2 samples)
	minimum = 0.0893114 (2 samples)
	maximum = 0.127409 (2 samples)
Injected packet size average = 3.43218 (2 samples)
Accepted packet size average = 3.43218 (2 samples)
Hops average = 1 (2 samples)
----------------------------END-of-Interconnect-DETAILS-------------------------


gpgpu_simulation_time = 0 days, 3 hrs, 41 min, 9 sec (13269 sec)
gpgpu_simulation_rate = 75297 (inst/sec)
gpgpu_simulation_rate = 398 (cycle/sec)
GPGPU-Sim: synchronize waiting for inactive GPU simulation
GPGPU-Sim API: Stream Manager State
GPGPU-Sim: detected inactive GPU simulation thread
v  =    224.32334900
Lb =     21.34812355
Time (Greeks)   : 9336082.000000 msec

Press ENTER to exit...
