

        *** GPGPU-Sim Simulator Version 3.2.2  [build 0] ***


GPGPU-Sim PTX: simulation mode 0 (can change with PTX_SIM_MODE_FUNC environment variable:
               1=functional simulation only, 0=detailed performance simulator)
GPGPU-Sim: Configuration options:

-network_mode                           1 # Interconnection network mode
-inter_config_file   config_fermi_islip.icnt # Interconnection network config file
-gpgpu_ptx_use_cuobjdump                    1 # Use cuobjdump to extract ptx and sass from binaries
-gpgpu_experimental_lib_support                    0 # Try to extract code from cuda libraries [Broken because of unknown cudaGetExportTable]
-gpgpu_ptx_convert_to_ptxplus                    0 # Convert SASS (native ISA) to ptxplus and run ptxplus
-gpgpu_ptx_force_max_capability                   20 # Force maximum compute capability
-gpgpu_ptx_inst_debug_to_file                    0 # Dump executed instructions' debug information to file
-gpgpu_ptx_inst_debug_file       inst_debug.txt # Executed instructions' debug output file
-gpgpu_ptx_inst_debug_thread_uid                    1 # Thread UID for executed instructions' debug output
-gpgpu_simd_model                       1 # 1 = post-dominator
-gpgpu_shader_core_pipeline          1536:256:32 # shader core pipeline config, i.e., {<nthread>:<warpsize>}
-gpgpu_tex_cache:l1  4:128:24,L:R:m:N:L,F:128:4,128:2 # per-shader L1 texture cache  (READ-ONLY) config  {<nsets>:<bsize>:<assoc>,<rep>:<wr>:<alloc>:<wr_alloc>,<mshr>:<N>:<merge>,<mq>:<rf>}
-gpgpu_const_cache:l1 64:64:2,L:R:f:N:L,A:2:32,4 # per-shader L1 constant memory cache  (READ-ONLY) config  {<nsets>:<bsize>:<assoc>,<rep>:<wr>:<alloc>:<wr_alloc>,<mshr>:<N>:<merge>,<mq>} 
-gpgpu_cache:il1     4:128:4,L:R:f:N:L,A:2:32,4 # shader L1 instruction cache config  {<nsets>:<bsize>:<assoc>,<rep>:<wr>:<alloc>:<wr_alloc>,<mshr>:<N>:<merge>,<mq>} 
-gpgpu_cache:dl1     32:128:4,L:L:m:N:H,A:32:8,8 # per-shader L1 data cache config  {<nsets>:<bsize>:<assoc>,<rep>:<wr>:<alloc>:<wr_alloc>,<mshr>:<N>:<merge>,<mq> | none}
-gpgpu_cache:dl1PrefL1                 none # per-shader L1 data cache config  {<nsets>:<bsize>:<assoc>,<rep>:<wr>:<alloc>:<wr_alloc>,<mshr>:<N>:<merge>,<mq> | none}
-gpgpu_cache:dl1PreShared                 none # per-shader L1 data cache config  {<nsets>:<bsize>:<assoc>,<rep>:<wr>:<alloc>:<wr_alloc>,<mshr>:<N>:<merge>,<mq> | none}
-gmem_skip_L1D                          0 # global memory access skip L1D cache (implements -Xptxas -dlcm=cg, default=no skip)
-gpgpu_perfect_mem                      0 # enable perfect memory mode (no cache miss)
-n_regfile_gating_group                    4 # group of lanes that should be read/written together)
-gpgpu_clock_gated_reg_file                    0 # enable clock gated reg file for power calculations
-gpgpu_clock_gated_lanes                    0 # enable clock gated lanes for power calculations
-gpgpu_shader_registers                32768 # Number of registers per shader core. Limits number of concurrent CTAs. (default 8192)
-gpgpu_shader_cta                       8 # Maximum number of concurrent CTAs in shader (default 8)
-gpgpu_num_cta_barriers                   16 # Maximum number of named barriers per CTA (default 16)
-gpgpu_n_clusters                      15 # number of processing clusters
-gpgpu_n_cores_per_cluster                    1 # number of simd cores per cluster
-gpgpu_n_cluster_ejection_buffer_size                    8 # number of packets in ejection buffer
-gpgpu_n_ldst_response_buffer_size                    2 # number of response packets in ld/st unit ejection buffer
-gpgpu_shmem_size                   16384 # Size of shared memory per shader core (default 16kB)
-gpgpu_shmem_size                   49152 # Size of shared memory per shader core (default 16kB)
-gpgpu_shmem_size_PrefL1                16384 # Size of shared memory per shader core (default 16kB)
-gpgpu_shmem_size_PrefShared                16384 # Size of shared memory per shader core (default 16kB)
-gpgpu_shmem_num_banks                   32 # Number of banks in the shared memory in each shader core (default 16)
-gpgpu_shmem_limited_broadcast                    0 # Limit shared memory to do one broadcast per cycle (default on)
-gpgpu_shmem_warp_parts                    1 # Number of portions a warp is divided into for shared memory bank conflict check 
-gpgpu_warpdistro_shader                   -1 # Specify which shader core to collect the warp size distribution from
-gpgpu_warp_issue_shader                    0 # Specify which shader core to collect the warp issue distribution from
-gpgpu_local_mem_map                    1 # Mapping from local memory space address to simulated GPU physical address space (default = enabled)
-gpgpu_num_reg_banks                   16 # Number of register banks (default = 8)
-gpgpu_reg_bank_use_warp_id                    0 # Use warp ID in mapping registers to banks (default = off)
-gpgpu_operand_collector_num_units_sp                    6 # number of collector units (default = 4)
-gpgpu_operand_collector_num_units_sfu                    8 # number of collector units (default = 4)
-gpgpu_operand_collector_num_units_mem                    2 # number of collector units (default = 2)
-gpgpu_operand_collector_num_units_gen                    0 # number of collector units (default = 0)
-gpgpu_operand_collector_num_in_ports_sp                    2 # number of collector unit in ports (default = 1)
-gpgpu_operand_collector_num_in_ports_sfu                    1 # number of collector unit in ports (default = 1)
-gpgpu_operand_collector_num_in_ports_mem                    1 # number of collector unit in ports (default = 1)
-gpgpu_operand_collector_num_in_ports_gen                    0 # number of collector unit in ports (default = 0)
-gpgpu_operand_collector_num_out_ports_sp                    2 # number of collector unit in ports (default = 1)
-gpgpu_operand_collector_num_out_ports_sfu                    1 # number of collector unit in ports (default = 1)
-gpgpu_operand_collector_num_out_ports_mem                    1 # number of collector unit in ports (default = 1)
-gpgpu_operand_collector_num_out_ports_gen                    0 # number of collector unit in ports (default = 0)
-gpgpu_coalesce_arch                   13 # Coalescing arch (default = 13, anything else is off for now)
-gpgpu_num_sched_per_core                    1 # Number of warp schedulers per core
-gpgpu_max_insn_issue_per_warp                    1 # Max number of instructions that can be issued per warp in one cycle by scheduler
-gpgpu_simt_core_sim_order                    1 # Select the simulation order of cores in a cluster (0=Fix, 1=Round-Robin)
-gpgpu_pipeline_widths        2,1,1,2,1,1,2 # Pipeline widths ID_OC_SP,ID_OC_SFU,ID_OC_MEM,OC_EX_SP,OC_EX_SFU,OC_EX_MEM,EX_WB
-gpgpu_num_sp_units                     2 # Number of SP units (default=1)
-gpgpu_num_sfu_units                    1 # Number of SF units (default=1)
-gpgpu_num_mem_units                    1 # Number if ldst units (default=1) WARNING: not hooked up to anything
-gpgpu_scheduler                      gto # Scheduler configuration: < lrr | gto | two_level_active > If two_level_active:<num_active_warps>:<inner_prioritization>:<outer_prioritization>For complete list of prioritization values see shader.h enum scheduler_prioritization_typeDefault: gto
-gpgpu_dram_scheduler                    1 # 0 = fifo, 1 = FR-FCFS (defaul)
-gpgpu_dram_partition_queues              8:8:8:8 # i2$:$2d:d2$:$2i
-l2_ideal                               0 # Use a ideal L2 cache that always hit
-gpgpu_cache:dl2     64:128:8,L:B:m:W:L,A:32:4,4:0,32 # unified banked L2 data cache config  {<nsets>:<bsize>:<assoc>,<rep>:<wr>:<alloc>:<wr_alloc>,<mshr>:<N>:<merge>,<mq>}
-gpgpu_cache:dl2_texture_only                    0 # L2 cache used for texture only
-gpgpu_n_mem                            6 # number of memory modules (e.g. memory controllers) in gpu
-gpgpu_n_sub_partition_per_mchannel                    2 # number of memory subpartition in each memory module
-gpgpu_n_mem_per_ctrlr                    2 # number of memory chips per memory controller
-gpgpu_memlatency_stat                   14 # track and display latency statistics 0x2 enables MC, 0x4 enables queue logs
-gpgpu_frfcfs_dram_sched_queue_size                   16 # 0 = unlimited (default); # entries per chip
-gpgpu_dram_return_queue_size                  116 # 0 = unlimited (default); # entries per chip
-gpgpu_dram_buswidth                    4 # default = 4 bytes (8 bytes per cycle at DDR)
-gpgpu_dram_burst_length                    8 # Burst length of each DRAM request (default = 4 data bus cycle)
-dram_data_command_freq_ratio                    4 # Frequency ratio between DRAM data bus and command bus (default = 2 times, i.e. DDR)
-gpgpu_dram_timing_opt nbk=16:CCD=2:RRD=6:RCD=12:RAS=28:RP=12:RC=40: CL=12:WL=4:CDLR=5:WR=12:nbkgrp=4:CCDL=3:RTPL=2 # DRAM timing parameters = {nbk:tCCD:tRRD:tRCD:tRAS:tRP:tRC:CL:WL:tCDLR:tWR:nbkgrp:tCCDL:tRTPL}
-rop_latency                          120 # ROP queue latency (default 85)
-dram_latency                         100 # DRAM latency (default 30)
-gpgpu_mem_addr_mapping dramid@8;00000000.00000000.00000000.00000000.0000RRRR.RRRRRRRR.BBBCCCCB.CCSSSSSS # mapping memory address to dram model {dramid@<start bit>;<memory address map>}
-gpgpu_mem_addr_test                    0 # run sweep test to check address mapping for aliased address
-gpgpu_mem_address_mask                    1 # 0 = old addressing mask, 1 = new addressing mask, 2 = new add. mask + flipped bank sel and chip sel bits
-gpuwattch_xml_file  gpuwattch_gtx480.xml # GPUWattch XML file
-power_simulation_enabled                    1 # Turn on power simulator (1=On, 0=Off)
-power_per_cycle_dump                    0 # Dump detailed power output each cycle
-power_trace_enabled                    0 # produce a file for the power trace (1=On, 0=Off)
-power_trace_zlevel                     6 # Compression level of the power trace output log (0=no comp, 9=highest)
-steady_power_levels_enabled                    0 # produce a file for the steady power levels (1=On, 0=Off)
-steady_state_definition                  8:4 # allowed deviation:number of samples
-gpgpu_max_cycle                        0 # terminates gpu simulation early (0 = no limit)
-gpgpu_max_insn                         0 # terminates gpu simulation early (0 = no limit)
-gpgpu_max_cta                          0 # terminates gpu simulation early (0 = no limit)
-gpgpu_runtime_stat                   500 # display runtime statistics such as dram utilization {<freq>:<flag>}
-liveness_message_freq                    1 # Minimum number of seconds between simulation liveness messages (0 = always print)
-gpgpu_flush_l1_cache                    0 # Flush L1 cache at the end of each kernel call
-gpgpu_flush_l2_cache                    0 # Flush L2 cache at the end of each kernel call
-gpgpu_deadlock_detect                    1 # Stop the simulation at deadlock (1=on (default), 0=off)
-gpgpu_ptx_instruction_classification                    0 # if enabled will classify ptx instruction types per kernel (Max 255 kernels now)
-gpgpu_ptx_sim_mode                     0 # Select between Performance (default) or Functional simulation (1)
-gpgpu_clock_domains 700.0:700.0:700.0:924.0 # Clock Domain Frequencies in MhZ {<Core Clock>:<ICNT Clock>:<L2 Clock>:<DRAM Clock>}
-gpgpu_max_concurrent_kernel                    8 # maximum kernels that can run concurrently on GPU
-gpgpu_cflog_interval                    0 # Interval between each snapshot in control flow logger
-visualizer_enabled                     0 # Turn on visualizer output (1=On, 0=Off)
-visualizer_outputfile                 NULL # Specifies the output log file for visualizer
-visualizer_zlevel                      6 # Compression level of the visualizer output log (0=no comp, 9=highest)
-trace_enabled                          0 # Turn on traces
-trace_components                    none # comma seperated list of traces to enable. Complete list found in trace_streams.tup. Default none
-trace_sampling_core                    0 # The core which is printed using CORE_DPRINTF. Default 0
-trace_sampling_memory_partition                   -1 # The memory partition which is printed using MEMPART_DPRINTF. Default -1 (i.e. all)
-enable_ptx_file_line_stats                    1 # Turn on PTX source line statistic profiling. (1 = On)
-ptx_line_stats_filename gpgpu_inst_stats.txt # Output file for PTX source line statistics.
-save_embedded_ptx                      0 # saves ptx files embedded in binary as <n>.ptx
-keep                                   0 # keep intermediate files created by GPGPU-Sim when interfacing with external programs
-gpgpu_ptx_save_converted_ptxplus                    0 # Saved converted ptxplus to a file
-ptx_opcode_latency_int         4,13,4,5,145 # Opcode latencies for integers <ADD,MAX,MUL,MAD,DIV>Default 1,1,19,25,145
-ptx_opcode_latency_fp          4,13,4,5,39 # Opcode latencies for single precision floating points <ADD,MAX,MUL,MAD,DIV>Default 1,1,1,1,30
-ptx_opcode_latency_dp         8,19,8,8,330 # Opcode latencies for double precision floating points <ADD,MAX,MUL,MAD,DIV>Default 8,8,8,8,335
-ptx_opcode_initiation_int            1,2,2,1,8 # Opcode initiation intervals for integers <ADD,MAX,MUL,MAD,DIV>Default 1,1,4,4,32
-ptx_opcode_initiation_fp            1,2,1,1,4 # Opcode initiation intervals for single precision floating points <ADD,MAX,MUL,MAD,DIV>Default 1,1,1,1,5
-ptx_opcode_initiation_dp         8,16,8,8,130 # Opcode initiation intervals for double precision floating points <ADD,MAX,MUL,MAD,DIV>Default 8,8,8,8,130
ESHA: SIMD Width was found to be : 32
DRAM Timing Options:
nbk                                    16 # number of banks
CCD                                     2 # column to column delay
RRD                                     6 # minimal delay between activation of rows in different banks
RCD                                    12 # row to column delay
RAS                                    28 # time needed to activate row
RP                                     12 # time needed to precharge (deactivate) row
RC                                     40 # row cycle time
CDLR                                    5 # switching from write to read (changes tWTR)
WR                                     12 # last data-in to row precharge
CL                                     12 # CAS latency
WL                                      4 # Write latency
nbkgrp                                  4 # number of bank groups
CCDL                                    3 # column to column delay between accesses to different bank groups
RTPL                                    2 # read to precharge delay between accesses to different bank groups
Total number of memory sub partition = 12
addr_dec_mask[CHIP]  = 0000000000000000 	high:64 low:0
addr_dec_mask[BK]    = 000000000000e100 	high:16 low:8
addr_dec_mask[ROW]   = 000000000fff0000 	high:28 low:16
addr_dec_mask[COL]   = 0000000000001eff 	high:13 low:0
addr_dec_mask[BURST] = 000000000000003f 	high:6 low:0
sub_partition_id_mask = 0000000000000100
GPGPU-Sim uArch: clock freqs: 700000000.000000:700000000.000000:700000000.000000:924000000.000000
GPGPU-Sim uArch: clock periods: 0.00000000142857142857:0.00000000142857142857:0.00000000142857142857:0.00000000108225108225
ESHA_CHANGED: in shader config simd is  32 
*** Initializing Memory Statistics ***
GPGPU-Sim uArch: interconnect node map (shaderID+MemID to icntID)
GPGPU-Sim uArch: Memory nodes ID start from index: 15
GPGPU-Sim uArch:    0   1   2   3   4
GPGPU-Sim uArch:    5   6   7   8   9
GPGPU-Sim uArch:   10  11  12  13  14
GPGPU-Sim uArch:   15  16  17  18  19
GPGPU-Sim uArch:   20  21  22  23  24
GPGPU-Sim uArch:   25  26
GPGPU-Sim uArch: interconnect node reverse map (icntID to shaderID+MemID)
GPGPU-Sim uArch: Memory nodes start from ID: 15
GPGPU-Sim uArch:    0   1   2   3   4
GPGPU-Sim uArch:    5   6   7   8   9
GPGPU-Sim uArch:   10  11  12  13  14
GPGPU-Sim uArch:   15  16  17  18  19
GPGPU-Sim uArch:   20  21  22  23  24
GPGPU-Sim uArch:   25  26
7c3d5ae41cea1e926c25170af925835d  /home/kishore/project_source/gpu_class_proj/gpgpusim-benchmarks-master/bin/release/LPS
GPGPU-Sim uArch: performance model initialization complete.
GPGPU-Sim PTX: __cudaRegisterFatBinary, fat_cubin_handle = 1, filename=laplace3d.cu
self exe links to: /home/kishore/project_source/gpu_class_proj/gpgpusim-benchmarks-master/bin/release/LPS
Running md5sum using "md5sum /home/kishore/project_source/gpu_class_proj/gpgpusim-benchmarks-master/bin/release/LPS "
Running cuobjdump using "$CUDA_INSTALL_PATH/bin/cuobjdump -ptx -elf -sass /home/kishore/project_source/gpu_class_proj/gpgpusim-benchmarks-master/bin/release/LPS > _cuobjdump_complete_output_X8m5Ot"
Parsing file _cuobjdump_complete_output_X8m5Ot
######### cuobjdump parser ########
## Adding new section PTX
Adding ptx filename: _cuobjdump_1.ptx
Adding arch: sm_10
Adding identifier: laplace3d.cu
## Adding new section ELF
Adding arch: sm_10
Adding identifier: laplace3d.cu
## Adding new section ELF
Adding arch: sm_20
Adding identifier: laplace3d.cu
## Adding new section PTX
Adding ptx filename: _cuobjdump_2.ptx
Adding arch: sm_20
Adding identifier: laplace3d.cu
Done parsing!!!
GPGPU-Sim PTX: __cudaRegisterFunction _Z13GPU_laplace3diiiiPfS_ : hostFun 0x0x403bc0, fat_cubin_handle = 1
GPGPU-Sim PTX: allocating shared region for "__cuda___cuda_local_var_34196_33_non_const_u132" from 0x0 to 0x990 (shared memory space)
GPGPU-Sim PTX: instruction assembly for function '_Z13GPU_laplace3diiiiPfS_'...   done.
GPGPU-Sim PTX: finding reconvergence points for '_Z13GPU_laplace3diiiiPfS_'...
GPGPU-Sim PTX: Finding dominators for '_Z13GPU_laplace3diiiiPfS_'...
GPGPU-Sim PTX: Finding immediate dominators for '_Z13GPU_laplace3diiiiPfS_'...
GPGPU-Sim PTX: Finding postdominators for '_Z13GPU_laplace3diiiiPfS_'...
GPGPU-Sim PTX: Finding immediate postdominators for '_Z13GPU_laplace3diiiiPfS_'...
GPGPU-Sim PTX: pre-decoding instructions for '_Z13GPU_laplace3diiiiPfS_'...
GPGPU-Sim PTX: reconvergence points for _Z13GPU_laplace3diiiiPfS_...
GPGPU-Sim PTX:  1 (potential) branch divergence @  PC=0x060 (_1.ptx:82) @!%p1 bra $Lt_0_14338;
GPGPU-Sim PTX:    immediate post dominator      @  PC=0x230 (_1.ptx:154) add.s32 %r57, %r37, %r12;
GPGPU-Sim PTX:  2 (potential) branch divergence @  PC=0x080 (_1.ptx:86) @%p2 bra $Lt_0_14850;
GPGPU-Sim PTX:    immediate post dominator      @  PC=0x120 (_1.ptx:113) add.s32 %r30, %r16, 1;
GPGPU-Sim PTX:  3 (potential) branch divergence @  PC=0x0a0 (_1.ptx:92) bra.uni $Lt_0_14594;
GPGPU-Sim PTX:    immediate post dominator      @  PC=0x120 (_1.ptx:113) add.s32 %r30, %r16, 1;
GPGPU-Sim PTX:  4 (potential) branch divergence @  PC=0x200 (_1.ptx:145) bra.uni $Lt_0_14082;
GPGPU-Sim PTX:    immediate post dominator      @  PC=0x230 (_1.ptx:154) add.s32 %r57, %r37, %r12;
GPGPU-Sim PTX:  5 (potential) branch divergence @  PC=0x290 (_1.ptx:166) @%p5 bra $Lt_0_15106;
GPGPU-Sim PTX:    immediate post dominator      @  PC=0x308 (_1.ptx:183) mov.u64 %rd1, __cuda___cuda_local_var_34196_33_non_const_u132;
GPGPU-Sim PTX:  6 (potential) branch divergence @  PC=0x320 (_1.ptx:186) @!%p6 bra $Lt_0_15618;
GPGPU-Sim PTX:    immediate post dominator      @  PC=0x380 (_1.ptx:200) ld.param.s32 %r73, [__cudaparm__Z13GPU_laplace3diiiiPfS__NZ];
GPGPU-Sim PTX:  7 (potential) branch divergence @  PC=0x398 (_1.ptx:203) @%p7 bra $Lt_0_16130;
GPGPU-Sim PTX:    immediate post dominator      @  PC=0x6d8 (_1.ptx:335) exit;
GPGPU-Sim PTX:  8 (potential) branch divergence @  PC=0x408 (_1.ptx:219) @%p8 bra $Lt_0_17410;
GPGPU-Sim PTX:    immediate post dominator      @  PC=0x4a0 (_1.ptx:245) @!%p6 bra $Lt_0_18434;
GPGPU-Sim PTX:  9 (potential) branch divergence @  PC=0x468 (_1.ptx:235) @%p9 bra $Lt_0_17410;
GPGPU-Sim PTX:    immediate post dominator      @  PC=0x4a0 (_1.ptx:245) @!%p6 bra $Lt_0_18434;
GPGPU-Sim PTX: 10 (potential) branch divergence @  PC=0x4a0 (_1.ptx:245) @!%p6 bra $Lt_0_18434;
GPGPU-Sim PTX:    immediate post dominator      @  PC=0x548 (_1.ptx:273) bar.sync 0;
GPGPU-Sim PTX: 11 (potential) branch divergence @  PC=0x510 (_1.ptx:262) @%p10 bra $Lt_0_18434;
GPGPU-Sim PTX:    immediate post dominator      @  PC=0x548 (_1.ptx:273) bar.sync 0;
GPGPU-Sim PTX: 12 (potential) branch divergence @  PC=0x560 (_1.ptx:276) @%p11 bra $Lt_0_18946;
GPGPU-Sim PTX:    immediate post dominator      @  PC=0x6b8 (_1.ptx:329) bar.sync 0;
GPGPU-Sim PTX: 13 (potential) branch divergence @  PC=0x578 (_1.ptx:280) @%p12 bra $Lt_0_20738;
GPGPU-Sim PTX:    immediate post dominator      @  PC=0x688 (_1.ptx:321) ld.param.u64 %rd35, [__cudaparm__Z13GPU_laplace3diiiiPfS__d_u2];
GPGPU-Sim PTX: 14 (potential) branch divergence @  PC=0x588 (_1.ptx:282) @%p13 bra $Lt_0_20738;
GPGPU-Sim PTX:    immediate post dominator      @  PC=0x688 (_1.ptx:321) ld.param.u64 %rd35, [__cudaparm__Z13GPU_laplace3diiiiPfS__d_u2];
GPGPU-Sim PTX: 15 (potential) branch divergence @  PC=0x5a0 (_1.ptx:285) @%p14 bra $Lt_0_20738;
GPGPU-Sim PTX:    immediate post dominator      @  PC=0x688 (_1.ptx:321) ld.param.u64 %rd35, [__cudaparm__Z13GPU_laplace3diiiiPfS__d_u2];
GPGPU-Sim PTX: 16 (potential) branch divergence @  PC=0x5b0 (_1.ptx:287) @%p15 bra $Lt_0_20738;
GPGPU-Sim PTX:    immediate post dominator      @  PC=0x688 (_1.ptx:321) ld.param.u64 %rd35, [__cudaparm__Z13GPU_laplace3diiiiPfS__d_u2];
GPGPU-Sim PTX: 17 (potential) branch divergence @  PC=0x5c8 (_1.ptx:290) @%p16 bra $Lt_0_20738;
GPGPU-Sim PTX:    immediate post dominator      @  PC=0x688 (_1.ptx:321) ld.param.u64 %rd35, [__cudaparm__Z13GPU_laplace3diiiiPfS__d_u2];
GPGPU-Sim PTX: 18 (potential) branch divergence @  PC=0x5d8 (_1.ptx:292) @%p17 bra $L_0_12546;
GPGPU-Sim PTX:    immediate post dominator      @  PC=0x688 (_1.ptx:321) ld.param.u64 %rd35, [__cudaparm__Z13GPU_laplace3diiiiPfS__d_u2];
GPGPU-Sim PTX: 19 (potential) branch divergence @  PC=0x600 (_1.ptx:300) bra.uni $L_0_12290;
GPGPU-Sim PTX:    immediate post dominator      @  PC=0x688 (_1.ptx:321) ld.param.u64 %rd35, [__cudaparm__Z13GPU_laplace3diiiiPfS__d_u2];
GPGPU-Sim PTX: 20 (potential) branch divergence @  PC=0x6d0 (_1.ptx:332) @%p18 bra $Lt_0_16642;
GPGPU-Sim PTX:    immediate post dominator      @  PC=0x6d8 (_1.ptx:335) exit;
GPGPU-Sim PTX: ... end of reconvergence points for _Z13GPU_laplace3diiiiPfS_
GPGPU-Sim PTX: ... done pre-decoding instructions for '_Z13GPU_laplace3diiiiPfS_'.
GPGPU-Sim PTX: finished parsing EMBEDDED .ptx file _1.ptx
Adding _cuobjdump_2.ptx with cubin handle 1
GPGPU-Sim PTX: extracting embedded .ptx to temporary file "_ptx_xjVGEo"
Running: cat _ptx_xjVGEo | sed 's/.version 1.5/.version 1.4/' | sed 's/, texmode_independent//' | sed 's/\(\.extern \.const\[1\] .b8 \w\+\)\[\]/\1\[1\]/' | sed 's/const\[.\]/const\[0\]/g' > _ptx2_Ffljuj
GPGPU-Sim PTX: generating ptxinfo using "$CUDA_INSTALL_PATH/bin/ptxas --gpu-name=sm_20 -v _ptx2_Ffljuj --output-file  /dev/null 2> _ptx_xjVGEoinfo"
GPGPU-Sim PTX: Kernel '_Z13GPU_laplace3diiiiPfS_' : regs=17, lmem=0, smem=2448, cmem=64
GPGPU-Sim PTX: removing ptxinfo using "rm -f _ptx_xjVGEo _ptx2_Ffljuj _ptx_xjVGEoinfo"
GPGPU-Sim PTX: loading globals with explicit initializers... 
GPGPU-Sim PTX: finished loading globals (0 bytes total).
GPGPU-Sim PTX: loading constants with explicit initializers...  done.

Grid dimensions: 100 x 100 x 100
GPGPU-Sim PTX: cudaMallocPitch (width = 400)
GPGPU-Sim PTX: cudaMallocPitch (width = 400)
GPGPU-Sim: synchronize waiting for inactive GPU simulation
GPGPU-Sim API: Stream Manager State
GPGPU-Sim: detected inactive GPU simulation thread

Copy u1 to device: 440.153015 (ms) 

 dimGrid  = 4 25 1 
 dimBlock = 32 4 1 
GPGPU-Sim: synchronize waiting for inactive GPU simulation
GPGPU-Sim API: Stream Manager State
GPGPU-Sim: detected inactive GPU simulation thread

GPGPU-Sim PTX: cudaLaunch for 0x0x403bc0 (mode=performance simulation) on stream 0
GPGPU-Sim PTX: pushing kernel '_Z13GPU_laplace3diiiiPfS_' to stream 0, gridDim= (4,25,1) blockDim = (32,4,1) 
kernel '_Z13GPU_laplace3diiiiPfS_' transfer to GPU hardware scheduler
GPGPU-Sim uArch: Shader 1 bind to kernel 1 '_Z13GPU_laplace3diiiiPfS_'
GPGPU-Sim uArch: CTA/core = 6, limited by: threads regs
GPGPU-Sim uArch: core:  1, cta: 0 initialized @(1,0)
GPGPU-Sim uArch: Shader 2 bind to kernel 1 '_Z13GPU_laplace3diiiiPfS_'
GPGPU-Sim uArch: core:  2, cta: 0 initialized @(1,0)
GPGPU-Sim uArch: Shader 3 bind to kernel 1 '_Z13GPU_laplace3diiiiPfS_'
GPGPU-Sim uArch: core:  3, cta: 0 initialized @(1,0)
GPGPU-Sim uArch: Shader 4 bind to kernel 1 '_Z13GPU_laplace3diiiiPfS_'
GPGPU-Sim uArch: core:  4, cta: 0 initialized @(1,0)
GPGPU-Sim uArch: Shader 5 bind to kernel 1 '_Z13GPU_laplace3diiiiPfS_'
GPGPU-Sim uArch: core:  5, cta: 0 initialized @(1,0)
GPGPU-Sim uArch: Shader 6 bind to kernel 1 '_Z13GPU_laplace3diiiiPfS_'
GPGPU-Sim uArch: core:  6, cta: 0 initialized @(1,0)
GPGPU-Sim uArch: Shader 7 bind to kernel 1 '_Z13GPU_laplace3diiiiPfS_'
GPGPU-Sim uArch: core:  7, cta: 0 initialized @(1,0)
GPGPU-Sim uArch: Shader 8 bind to kernel 1 '_Z13GPU_laplace3diiiiPfS_'
GPGPU-Sim uArch: core:  8, cta: 0 initialized @(1,0)
GPGPU-Sim uArch: Shader 9 bind to kernel 1 '_Z13GPU_laplace3diiiiPfS_'
GPGPU-Sim uArch: core:  9, cta: 0 initialized @(1,0)
GPGPU-Sim uArch: Shader 10 bind to kernel 1 '_Z13GPU_laplace3diiiiPfS_'
GPGPU-Sim uArch: core: 10, cta: 0 initialized @(1,0)
GPGPU-Sim uArch: Shader 11 bind to kernel 1 '_Z13GPU_laplace3diiiiPfS_'
GPGPU-Sim uArch: core: 11, cta: 0 initialized @(1,0)
GPGPU-Sim uArch: Shader 12 bind to kernel 1 '_Z13GPU_laplace3diiiiPfS_'
GPGPU-Sim uArch: core: 12, cta: 0 initialized @(1,0)
GPGPU-Sim uArch: Shader 13 bind to kernel 1 '_Z13GPU_laplace3diiiiPfS_'
GPGPU-Sim uArch: core: 13, cta: 0 initialized @(1,0)
GPGPU-Sim uArch: Shader 14 bind to kernel 1 '_Z13GPU_laplace3diiiiPfS_'
GPGPU-Sim uArch: core: 14, cta: 0 initialized @(1,0)
GPGPU-Sim uArch: Shader 0 bind to kernel 1 '_Z13GPU_laplace3diiiiPfS_'
GPGPU-Sim uArch: core:  0, cta: 0 initialized @(1,0)
GPGPU-Sim uArch: core:  1, cta: 1 initialized @(2,0)
GPGPU-Sim uArch: core:  2, cta: 1 initialized @(2,0)
GPGPU-Sim uArch: core:  3, cta: 1 initialized @(2,0)
GPGPU-Sim uArch: core:  4, cta: 1 initialized @(2,0)
GPGPU-Sim uArch: core:  5, cta: 1 initialized @(2,0)
GPGPU-Sim uArch: core:  6, cta: 1 initialized @(2,0)
GPGPU-Sim uArch: core:  7, cta: 1 initialized @(2,0)
GPGPU-Sim uArch: core:  8, cta: 1 initialized @(2,0)
GPGPU-Sim uArch: core:  9, cta: 1 initialized @(2,0)
GPGPU-Sim uArch: core: 10, cta: 1 initialized @(2,0)
GPGPU-Sim uArch: core: 11, cta: 1 initialized @(2,0)
GPGPU-Sim uArch: core: 12, cta: 1 initialized @(2,0)
GPGPU-Sim uArch: core: 13, cta: 1 initialized @(2,0)
GPGPU-Sim uArch: core: 14, cta: 1 initialized @(2,0)
GPGPU-Sim uArch: core:  0, cta: 1 initialized @(2,0)
GPGPU-Sim uArch: core:  1, cta: 2 initialized @(3,0)
GPGPU-Sim uArch: core:  2, cta: 2 initialized @(3,0)
GPGPU-Sim uArch: core:  3, cta: 2 initialized @(3,0)
GPGPU-Sim uArch: core:  4, cta: 2 initialized @(3,0)
GPGPU-Sim uArch: core:  5, cta: 2 initialized @(3,0)
GPGPU-Sim uArch: core:  6, cta: 2 initialized @(3,0)
GPGPU-Sim uArch: core:  7, cta: 2 initialized @(3,0)
GPGPU-Sim uArch: core:  8, cta: 2 initialized @(3,0)
GPGPU-Sim uArch: core:  9, cta: 2 initialized @(3,0)
GPGPU-Sim uArch: core: 10, cta: 2 initialized @(3,0)
GPGPU-Sim uArch: core: 11, cta: 2 initialized @(3,0)
GPGPU-Sim uArch: core: 12, cta: 2 initialized @(3,0)
GPGPU-Sim uArch: core: 13, cta: 2 initialized @(3,0)
GPGPU-Sim uArch: core: 14, cta: 2 initialized @(3,0)
GPGPU-Sim uArch: core:  0, cta: 2 initialized @(3,0)
GPGPU-Sim uArch: core:  1, cta: 3 initialized @(4,0)
GPGPU-Sim uArch: core:  2, cta: 3 initialized @(4,0)
GPGPU-Sim uArch: core:  3, cta: 3 initialized @(4,0)
GPGPU-Sim uArch: core:  4, cta: 3 initialized @(4,0)
GPGPU-Sim uArch: core:  5, cta: 3 initialized @(4,0)
GPGPU-Sim uArch: core:  6, cta: 3 initialized @(4,0)
GPGPU-Sim uArch: core:  7, cta: 3 initialized @(4,0)
GPGPU-Sim uArch: core:  8, cta: 3 initialized @(4,0)
GPGPU-Sim uArch: core:  9, cta: 3 initialized @(4,0)
GPGPU-Sim uArch: core: 10, cta: 3 initialized @(4,0)
GPGPU-Sim uArch: core: 11, cta: 3 initialized @(4,0)
GPGPU-Sim uArch: core: 12, cta: 3 initialized @(4,0)
GPGPU-Sim uArch: core: 13, cta: 3 initialized @(4,0)
GPGPU-Sim uArch: core: 14, cta: 3 initialized @(4,0)
GPGPU-Sim uArch: core:  0, cta: 3 initialized @(4,0)
GPGPU-Sim uArch: core:  1, cta: 4 initialized @(5,0)
GPGPU-Sim uArch: core:  2, cta: 4 initialized @(5,0)
GPGPU-Sim uArch: core:  3, cta: 4 initialized @(5,0)
GPGPU-Sim uArch: core:  4, cta: 4 initialized @(5,0)
GPGPU-Sim uArch: core:  5, cta: 4 initialized @(5,0)
GPGPU-Sim uArch: core:  6, cta: 4 initialized @(5,0)
GPGPU-Sim uArch: core:  7, cta: 4 initialized @(5,0)
GPGPU-Sim uArch: core:  8, cta: 4 initialized @(5,0)
GPGPU-Sim uArch: core:  9, cta: 4 initialized @(5,0)
GPGPU-Sim uArch: core: 10, cta: 4 initialized @(5,0)
GPGPU-Sim uArch: core: 11, cta: 4 initialized @(5,0)
GPGPU-Sim uArch: core: 12, cta: 4 initialized @(5,0)
GPGPU-Sim uArch: core: 13, cta: 4 initialized @(5,0)
GPGPU-Sim uArch: core: 14, cta: 4 initialized @(5,0)
GPGPU-Sim uArch: core:  0, cta: 4 initialized @(5,0)
GPGPU-Sim uArch: core:  1, cta: 5 initialized @(6,0)
GPGPU-Sim uArch: core:  2, cta: 5 initialized @(6,0)
GPGPU-Sim uArch: core:  3, cta: 5 initialized @(6,0)
GPGPU-Sim uArch: core:  4, cta: 5 initialized @(6,0)
GPGPU-Sim uArch: core:  5, cta: 5 initialized @(6,0)
GPGPU-Sim uArch: core:  6, cta: 5 initialized @(6,0)
GPGPU-Sim uArch: core:  7, cta: 5 initialized @(6,0)
GPGPU-Sim uArch: core:  8, cta: 5 initialized @(6,0)
GPGPU-Sim uArch: core:  9, cta: 5 initialized @(6,0)
GPGPU-Sim uArch: core: 10, cta: 5 initialized @(6,0)
GPGPU-Sim uArch: core: 11, cta: 5 initialized @(6,0)
GPGPU-Sim uArch: core: 12, cta: 5 initialized @(6,0)
GPGPU-Sim uArch: core: 13, cta: 5 initialized @(6,0)
GPGPU-Sim uArch: core: 14, cta: 5 initialized @(6,0)
GPGPU-Sim uArch: core:  0, cta: 5 initialized @(6,0)
GPGPU-Sim PTX: 100000 instructions simulated : ctaid=(0,6,0) tid=(31,0,0)
GPGPU-Sim uArch: cycles simulated: 500  inst.: 99120 (ipc=198.2) sim_rate=24780 (inst/sec) elapsed = 0:0:00:04 / Tue May 12 10:42:09 2015
GPGPU-Sim PTX: 200000 instructions simulated : ctaid=(1,18,0) tid=(11,0,0)
GPGPU-Sim uArch: cycles simulated: 1000  inst.: 193560 (ipc=193.6) sim_rate=32260 (inst/sec) elapsed = 0:0:00:06 / Tue May 12 10:42:11 2015
GPGPU-Sim PTX: 300000 instructions simulated : ctaid=(1,5,0) tid=(15,1,0)
GPGPU-Sim uArch: cycles simulated: 1500  inst.: 309240 (ipc=206.2) sim_rate=44177 (inst/sec) elapsed = 0:0:00:07 / Tue May 12 10:42:12 2015
GPGPU-Sim PTX: 400000 instructions simulated : ctaid=(2,12,0) tid=(3,2,0)
GPGPU-Sim PTX: 500000 instructions simulated : ctaid=(1,13,0) tid=(31,1,0)
GPGPU-Sim uArch: cycles simulated: 2000  inst.: 540720 (ipc=270.4) sim_rate=54072 (inst/sec) elapsed = 0:0:00:10 / Tue May 12 10:42:15 2015
GPGPU-Sim PTX: 600000 instructions simulated : ctaid=(1,15,0) tid=(23,2,0)
GPGPU-Sim PTX: 700000 instructions simulated : ctaid=(2,10,0) tid=(23,3,0)
GPGPU-Sim uArch: cycles simulated: 2500  inst.: 676256 (ipc=270.5) sim_rate=56354 (inst/sec) elapsed = 0:0:00:12 / Tue May 12 10:42:17 2015
GPGPU-Sim PTX: 800000 instructions simulated : ctaid=(1,7,0) tid=(5,0,0)
GPGPU-Sim uArch: cycles simulated: 3000  inst.: 774972 (ipc=258.3) sim_rate=55355 (inst/sec) elapsed = 0:0:00:14 / Tue May 12 10:42:19 2015
GPGPU-Sim PTX: 900000 instructions simulated : ctaid=(0,12,0) tid=(21,3,0)
GPGPU-Sim PTX: 1000000 instructions simulated : ctaid=(0,18,0) tid=(7,2,0)
GPGPU-Sim uArch: cycles simulated: 3500  inst.: 964208 (ipc=275.5) sim_rate=60263 (inst/sec) elapsed = 0:0:00:16 / Tue May 12 10:42:21 2015
GPGPU-Sim PTX: 1100000 instructions simulated : ctaid=(2,12,0) tid=(7,1,0)
GPGPU-Sim uArch: cycles simulated: 4000  inst.: 1114032 (ipc=278.5) sim_rate=61890 (inst/sec) elapsed = 0:0:00:18 / Tue May 12 10:42:23 2015
GPGPU-Sim PTX: 1200000 instructions simulated : ctaid=(0,11,0) tid=(15,0,0)
GPGPU-Sim uArch: cycles simulated: 4500  inst.: 1144902 (ipc=254.4) sim_rate=60258 (inst/sec) elapsed = 0:0:00:19 / Tue May 12 10:42:24 2015
GPGPU-Sim PTX: 1300000 instructions simulated : ctaid=(2,0,0) tid=(14,2,0)
GPGPU-Sim uArch: cycles simulated: 5000  inst.: 1254108 (ipc=250.8) sim_rate=59719 (inst/sec) elapsed = 0:0:00:21 / Tue May 12 10:42:26 2015
GPGPU-Sim PTX: 1400000 instructions simulated : ctaid=(2,11,0) tid=(3,3,0)
GPGPU-Sim uArch: cycles simulated: 5500  inst.: 1355860 (ipc=246.5) sim_rate=58950 (inst/sec) elapsed = 0:0:00:23 / Tue May 12 10:42:28 2015
GPGPU-Sim PTX: 1500000 instructions simulated : ctaid=(0,16,0) tid=(6,0,0)
GPGPU-Sim PTX: 1600000 instructions simulated : ctaid=(0,19,0) tid=(25,2,0)
GPGPU-Sim PTX: 1700000 instructions simulated : ctaid=(1,17,0) tid=(9,2,0)
GPGPU-Sim uArch: cycles simulated: 6000  inst.: 1578474 (ipc=263.1) sim_rate=60710 (inst/sec) elapsed = 0:0:00:26 / Tue May 12 10:42:31 2015
GPGPU-Sim PTX: 1800000 instructions simulated : ctaid=(1,22,0) tid=(9,1,0)
GPGPU-Sim uArch: cycles simulated: 6500  inst.: 1662122 (ipc=255.7) sim_rate=61560 (inst/sec) elapsed = 0:0:00:27 / Tue May 12 10:42:32 2015
GPGPU-Sim uArch: cycles simulated: 7000  inst.: 1662786 (ipc=237.5) sim_rate=59385 (inst/sec) elapsed = 0:0:00:28 / Tue May 12 10:42:33 2015
GPGPU-Sim PTX: 1900000 instructions simulated : ctaid=(1,2,0) tid=(25,1,0)
GPGPU-Sim uArch: cycles simulated: 7500  inst.: 1765228 (ipc=235.4) sim_rate=60869 (inst/sec) elapsed = 0:0:00:29 / Tue May 12 10:42:34 2015
GPGPU-Sim PTX: 2000000 instructions simulated : ctaid=(0,8,0) tid=(6,0,0)
GPGPU-Sim PTX: 2100000 instructions simulated : ctaid=(1,8,0) tid=(1,2,0)
GPGPU-Sim PTX: 2200000 instructions simulated : ctaid=(1,1,0) tid=(17,1,0)
GPGPU-Sim PTX: 2300000 instructions simulated : ctaid=(1,4,0) tid=(21,3,0)
GPGPU-Sim uArch: cycles simulated: 8000  inst.: 2117540 (ipc=264.7) sim_rate=62280 (inst/sec) elapsed = 0:0:00:34 / Tue May 12 10:42:39 2015
GPGPU-Sim PTX: 2400000 instructions simulated : ctaid=(1,12,0) tid=(5,2,0)
GPGPU-Sim PTX: 2500000 instructions simulated : ctaid=(1,12,0) tid=(29,1,0)
GPGPU-Sim uArch: cycles simulated: 8500  inst.: 2309171 (ipc=271.7) sim_rate=62410 (inst/sec) elapsed = 0:0:00:37 / Tue May 12 10:42:42 2015
GPGPU-Sim uArch: cycles simulated: 9000  inst.: 2352024 (ipc=261.3) sim_rate=61895 (inst/sec) elapsed = 0:0:00:38 / Tue May 12 10:42:43 2015
GPGPU-Sim PTX: 2600000 instructions simulated : ctaid=(1,8,0) tid=(24,0,0)
GPGPU-Sim PTX: 2700000 instructions simulated : ctaid=(0,1,0) tid=(19,0,0)
GPGPU-Sim PTX: 2800000 instructions simulated : ctaid=(1,7,0) tid=(6,0,0)
GPGPU-Sim uArch: cycles simulated: 9500  inst.: 2564114 (ipc=269.9) sim_rate=62539 (inst/sec) elapsed = 0:0:00:41 / Tue May 12 10:42:46 2015
GPGPU-Sim PTX: 2900000 instructions simulated : ctaid=(1,13,0) tid=(22,0,0)
GPGPU-Sim PTX: 3000000 instructions simulated : ctaid=(0,8,0) tid=(28,0,0)
GPGPU-Sim PTX: 3100000 instructions simulated : ctaid=(1,15,0) tid=(10,0,0)
GPGPU-Sim PTX: 3200000 instructions simulated : ctaid=(1,15,0) tid=(16,3,0)
GPGPU-Sim uArch: cycles simulated: 10000  inst.: 2955282 (ipc=295.5) sim_rate=64245 (inst/sec) elapsed = 0:0:00:46 / Tue May 12 10:42:51 2015
GPGPU-Sim PTX: 3300000 instructions simulated : ctaid=(2,4,0) tid=(26,2,0)
GPGPU-Sim uArch: cycles simulated: 10500  inst.: 3003405 (ipc=286.0) sim_rate=63902 (inst/sec) elapsed = 0:0:00:47 / Tue May 12 10:42:52 2015
GPGPU-Sim PTX: 3400000 instructions simulated : ctaid=(1,0,0) tid=(23,3,0)
GPGPU-Sim PTX: 3500000 instructions simulated : ctaid=(2,2,0) tid=(13,3,0)
GPGPU-Sim uArch: cycles simulated: 11000  inst.: 3196512 (ipc=290.6) sim_rate=63930 (inst/sec) elapsed = 0:0:00:50 / Tue May 12 10:42:55 2015
GPGPU-Sim PTX: 3600000 instructions simulated : ctaid=(0,17,0) tid=(25,1,0)
GPGPU-Sim PTX: 3700000 instructions simulated : ctaid=(0,19,0) tid=(7,3,0)
GPGPU-Sim PTX: 3800000 instructions simulated : ctaid=(1,14,0) tid=(0,2,0)
GPGPU-Sim PTX: 3900000 instructions simulated : ctaid=(0,21,0) tid=(21,2,0)
GPGPU-Sim uArch: cycles simulated: 11500  inst.: 3591926 (ipc=312.3) sim_rate=65307 (inst/sec) elapsed = 0:0:00:55 / Tue May 12 10:43:00 2015
GPGPU-Sim PTX: 4000000 instructions simulated : ctaid=(2,14,0) tid=(14,1,0)
GPGPU-Sim uArch: cycles simulated: 12000  inst.: 3690864 (ipc=307.6) sim_rate=65908 (inst/sec) elapsed = 0:0:00:56 / Tue May 12 10:43:01 2015
GPGPU-Sim PTX: 4100000 instructions simulated : ctaid=(0,5,0) tid=(13,0,0)
GPGPU-Sim PTX: 4200000 instructions simulated : ctaid=(1,14,0) tid=(7,0,0)
GPGPU-Sim PTX: 4300000 instructions simulated : ctaid=(2,6,0) tid=(16,0,0)
GPGPU-Sim uArch: cycles simulated: 12500  inst.: 3901764 (ipc=312.1) sim_rate=66131 (inst/sec) elapsed = 0:0:00:59 / Tue May 12 10:43:04 2015
GPGPU-Sim PTX: 4400000 instructions simulated : ctaid=(2,13,0) tid=(11,1,0)
GPGPU-Sim PTX: 4500000 instructions simulated : ctaid=(0,9,0) tid=(22,3,0)
GPGPU-Sim PTX: 4600000 instructions simulated : ctaid=(2,16,0) tid=(28,2,0)
GPGPU-Sim PTX: 4700000 instructions simulated : ctaid=(0,12,0) tid=(3,0,0)
GPGPU-Sim uArch: cycles simulated: 13000  inst.: 4281644 (ipc=329.4) sim_rate=66900 (inst/sec) elapsed = 0:0:01:04 / Tue May 12 10:43:09 2015
GPGPU-Sim PTX: 4800000 instructions simulated : ctaid=(0,1,0) tid=(27,1,0)
GPGPU-Sim uArch: cycles simulated: 13500  inst.: 4362756 (ipc=323.2) sim_rate=66102 (inst/sec) elapsed = 0:0:01:06 / Tue May 12 10:43:11 2015
GPGPU-Sim PTX: 4900000 instructions simulated : ctaid=(1,7,0) tid=(2,0,0)
GPGPU-Sim PTX: 5000000 instructions simulated : ctaid=(0,4,0) tid=(10,0,0)
GPGPU-Sim uArch: cycles simulated: 14000  inst.: 4569868 (ipc=326.4) sim_rate=66229 (inst/sec) elapsed = 0:0:01:09 / Tue May 12 10:43:14 2015
GPGPU-Sim PTX: 5100000 instructions simulated : ctaid=(0,6,0) tid=(28,0,0)
GPGPU-Sim PTX: 5200000 instructions simulated : ctaid=(2,18,0) tid=(9,2,0)
GPGPU-Sim PTX: 5300000 instructions simulated : ctaid=(0,19,0) tid=(25,0,0)
GPGPU-Sim PTX: 5400000 instructions simulated : ctaid=(0,0,0) tid=(5,3,0)
GPGPU-Sim uArch: cycles simulated: 14500  inst.: 4941606 (ipc=340.8) sim_rate=67693 (inst/sec) elapsed = 0:0:01:13 / Tue May 12 10:43:18 2015
GPGPU-Sim PTX: 5500000 instructions simulated : ctaid=(2,11,0) tid=(31,1,0)
GPGPU-Sim uArch: cycles simulated: 15000  inst.: 4990116 (ipc=332.7) sim_rate=67434 (inst/sec) elapsed = 0:0:01:14 / Tue May 12 10:43:19 2015
GPGPU-Sim PTX: 5600000 instructions simulated : ctaid=(0,13,0) tid=(20,0,0)
GPGPU-Sim PTX: 5700000 instructions simulated : ctaid=(2,12,0) tid=(11,0,0)
GPGPU-Sim PTX: 5800000 instructions simulated : ctaid=(1,6,0) tid=(20,3,0)
GPGPU-Sim uArch: cycles simulated: 15500  inst.: 5247322 (ipc=338.5) sim_rate=67273 (inst/sec) elapsed = 0:0:01:18 / Tue May 12 10:43:23 2015
GPGPU-Sim PTX: 5900000 instructions simulated : ctaid=(0,0,0) tid=(21,1,0)
GPGPU-Sim PTX: 6000000 instructions simulated : ctaid=(1,8,0) tid=(31,0,0)
GPGPU-Sim PTX: 6100000 instructions simulated : ctaid=(1,19,0) tid=(7,2,0)
GPGPU-Sim PTX: 6200000 instructions simulated : ctaid=(0,12,0) tid=(25,1,0)
GPGPU-Sim uArch: cycles simulated: 16000  inst.: 5608412 (ipc=350.5) sim_rate=67571 (inst/sec) elapsed = 0:0:01:23 / Tue May 12 10:43:28 2015
GPGPU-Sim PTX: 6300000 instructions simulated : ctaid=(3,12,0) tid=(0,2,0)
GPGPU-Sim PTX: 6400000 instructions simulated : ctaid=(3,9,0) tid=(30,2,0)
GPGPU-Sim PTX: 6500000 instructions simulated : ctaid=(1,22,0) tid=(5,2,0)
GPGPU-Sim uArch: cycles simulated: 17000  inst.: 5876913 (ipc=345.7) sim_rate=67550 (inst/sec) elapsed = 0:0:01:27 / Tue May 12 10:43:32 2015
GPGPU-Sim PTX: 6600000 instructions simulated : ctaid=(2,16,0) tid=(11,0,0)
GPGPU-Sim PTX: 6700000 instructions simulated : ctaid=(0,20,0) tid=(27,2,0)
GPGPU-Sim PTX: 6800000 instructions simulated : ctaid=(1,14,0) tid=(30,1,0)
GPGPU-Sim PTX: 6900000 instructions simulated : ctaid=(2,8,0) tid=(2,0,0)
GPGPU-Sim uArch: cycles simulated: 17500  inst.: 6243452 (ipc=356.8) sim_rate=68609 (inst/sec) elapsed = 0:0:01:31 / Tue May 12 10:43:36 2015
GPGPU-Sim PTX: 7000000 instructions simulated : ctaid=(2,1,0) tid=(3,0,0)
GPGPU-Sim uArch: cycles simulated: 18000  inst.: 6316324 (ipc=350.9) sim_rate=67917 (inst/sec) elapsed = 0:0:01:33 / Tue May 12 10:43:38 2015
GPGPU-Sim PTX: 7100000 instructions simulated : ctaid=(1,15,0) tid=(2,0,0)
GPGPU-Sim PTX: 7200000 instructions simulated : ctaid=(2,12,0) tid=(29,2,0)
GPGPU-Sim PTX: 7300000 instructions simulated : ctaid=(0,9,0) tid=(21,2,0)
GPGPU-Sim uArch: cycles simulated: 18500  inst.: 6548361 (ipc=354.0) sim_rate=68212 (inst/sec) elapsed = 0:0:01:36 / Tue May 12 10:43:41 2015
GPGPU-Sim PTX: 7400000 instructions simulated : ctaid=(1,18,0) tid=(19,1,0)
GPGPU-Sim PTX: 7500000 instructions simulated : ctaid=(2,6,0) tid=(21,1,0)
GPGPU-Sim PTX: 7600000 instructions simulated : ctaid=(2,17,0) tid=(13,0,0)
GPGPU-Sim PTX: 7700000 instructions simulated : ctaid=(0,12,0) tid=(27,0,0)
GPGPU-Sim uArch: cycles simulated: 19000  inst.: 6928050 (ipc=364.6) sim_rate=68594 (inst/sec) elapsed = 0:0:01:41 / Tue May 12 10:43:46 2015
GPGPU-Sim PTX: 7800000 instructions simulated : ctaid=(3,12,0) tid=(3,2,0)
GPGPU-Sim uArch: cycles simulated: 19500  inst.: 7033090 (ipc=360.7) sim_rate=68282 (inst/sec) elapsed = 0:0:01:43 / Tue May 12 10:43:48 2015
GPGPU-Sim PTX: 7900000 instructions simulated : ctaid=(1,22,0) tid=(22,1,0)
GPGPU-Sim PTX: 8000000 instructions simulated : ctaid=(2,15,0) tid=(24,0,0)
GPGPU-Sim PTX: 8100000 instructions simulated : ctaid=(2,20,0) tid=(14,2,0)
GPGPU-Sim uArch: cycles simulated: 20000  inst.: 7260325 (ipc=363.0) sim_rate=68493 (inst/sec) elapsed = 0:0:01:46 / Tue May 12 10:43:51 2015
GPGPU-Sim PTX: 8200000 instructions simulated : ctaid=(1,5,0) tid=(25,1,0)
GPGPU-Sim PTX: 8300000 instructions simulated : ctaid=(0,17,0) tid=(17,0,0)
GPGPU-Sim PTX: 8400000 instructions simulated : ctaid=(2,7,0) tid=(24,2,0)
GPGPU-Sim uArch: cycles simulated: 20500  inst.: 7608777 (ipc=371.2) sim_rate=69170 (inst/sec) elapsed = 0:0:01:50 / Tue May 12 10:43:55 2015
GPGPU-Sim PTX: 8500000 instructions simulated : ctaid=(2,1,0) tid=(4,3,0)
GPGPU-Sim PTX: 8600000 instructions simulated : ctaid=(2,2,0) tid=(0,0,0)
GPGPU-Sim uArch: cycles simulated: 21000  inst.: 7780366 (ipc=370.5) sim_rate=68852 (inst/sec) elapsed = 0:0:01:53 / Tue May 12 10:43:58 2015
GPGPU-Sim PTX: 8700000 instructions simulated : ctaid=(0,2,0) tid=(21,0,0)
GPGPU-Sim PTX: 8800000 instructions simulated : ctaid=(0,22,0) tid=(9,2,0)
GPGPU-Sim PTX: 8900000 instructions simulated : ctaid=(2,20,0) tid=(11,0,0)
GPGPU-Sim PTX: 9000000 instructions simulated : ctaid=(1,17,0) tid=(24,3,0)
GPGPU-Sim uArch: cycles simulated: 21500  inst.: 8074075 (ipc=375.5) sim_rate=69009 (inst/sec) elapsed = 0:0:01:57 / Tue May 12 10:44:02 2015
GPGPU-Sim PTX: 9100000 instructions simulated : ctaid=(0,0,0) tid=(5,1,0)
GPGPU-Sim PTX: 9200000 instructions simulated : ctaid=(2,0,0) tid=(31,3,0)
GPGPU-Sim uArch: cycles simulated: 22000  inst.: 8325057 (ipc=378.4) sim_rate=69375 (inst/sec) elapsed = 0:0:02:00 / Tue May 12 10:44:05 2015
GPGPU-Sim PTX: 9300000 instructions simulated : ctaid=(2,12,0) tid=(27,1,0)
GPGPU-Sim PTX: 9400000 instructions simulated : ctaid=(0,2,0) tid=(4,0,0)
GPGPU-Sim PTX: 9500000 instructions simulated : ctaid=(0,10,0) tid=(14,3,0)
GPGPU-Sim uArch: cycles simulated: 22500  inst.: 8511997 (ipc=378.3) sim_rate=69203 (inst/sec) elapsed = 0:0:02:03 / Tue May 12 10:44:08 2015
GPGPU-Sim PTX: 9600000 instructions simulated : ctaid=(3,18,0) tid=(11,2,0)
GPGPU-Sim PTX: 9700000 instructions simulated : ctaid=(3,17,0) tid=(1,1,0)
GPGPU-Sim PTX: 9800000 instructions simulated : ctaid=(0,5,0) tid=(11,3,0)
GPGPU-Sim uArch: cycles simulated: 23000  inst.: 8822478 (ipc=383.6) sim_rate=69468 (inst/sec) elapsed = 0:0:02:07 / Tue May 12 10:44:12 2015
GPGPU-Sim PTX: 9900000 instructions simulated : ctaid=(1,19,0) tid=(21,1,0)
GPGPU-Sim PTX: 10000000 instructions simulated : ctaid=(1,6,0) tid=(6,0,0)
GPGPU-Sim uArch: cycles simulated: 23500  inst.: 9034384 (ipc=384.4) sim_rate=69495 (inst/sec) elapsed = 0:0:02:10 / Tue May 12 10:44:15 2015
GPGPU-Sim PTX: 10100000 instructions simulated : ctaid=(3,3,0) tid=(0,2,0)
GPGPU-Sim PTX: 10200000 instructions simulated : ctaid=(2,10,0) tid=(14,0,0)
GPGPU-Sim PTX: 10300000 instructions simulated : ctaid=(2,18,0) tid=(5,3,0)
GPGPU-Sim uArch: cycles simulated: 24000  inst.: 9232739 (ipc=384.7) sim_rate=69419 (inst/sec) elapsed = 0:0:02:13 / Tue May 12 10:44:18 2015
GPGPU-Sim PTX: 10400000 instructions simulated : ctaid=(2,17,0) tid=(27,0,0)
GPGPU-Sim PTX: 10500000 instructions simulated : ctaid=(2,7,0) tid=(25,3,0)
GPGPU-Sim PTX: 10600000 instructions simulated : ctaid=(2,5,0) tid=(31,1,0)
GPGPU-Sim uArch: cycles simulated: 24500  inst.: 9556132 (ipc=390.0) sim_rate=69752 (inst/sec) elapsed = 0:0:02:17 / Tue May 12 10:44:22 2015
GPGPU-Sim PTX: 10700000 instructions simulated : ctaid=(0,5,0) tid=(29,0,0)
GPGPU-Sim PTX: 10800000 instructions simulated : ctaid=(0,3,0) tid=(31,1,0)
GPGPU-Sim uArch: cycles simulated: 25000  inst.: 9742486 (ipc=389.7) sim_rate=70089 (inst/sec) elapsed = 0:0:02:19 / Tue May 12 10:44:24 2015
GPGPU-Sim PTX: 10900000 instructions simulated : ctaid=(0,4,0) tid=(7,1,0)
GPGPU-Sim PTX: 11000000 instructions simulated : ctaid=(2,6,0) tid=(18,3,0)
GPGPU-Sim uArch: cycles simulated: 25500  inst.: 9900515 (ipc=388.3) sim_rate=69721 (inst/sec) elapsed = 0:0:02:22 / Tue May 12 10:44:27 2015
GPGPU-Sim PTX: 11100000 instructions simulated : ctaid=(1,12,0) tid=(6,2,0)
GPGPU-Sim PTX: 11200000 instructions simulated : ctaid=(1,13,0) tid=(8,0,0)
GPGPU-Sim PTX: 11300000 instructions simulated : ctaid=(2,11,0) tid=(9,0,0)
GPGPU-Sim PTX: 11400000 instructions simulated : ctaid=(2,11,0) tid=(20,2,0)
GPGPU-Sim uArch: cycles simulated: 26000  inst.: 10242348 (ipc=393.9) sim_rate=70153 (inst/sec) elapsed = 0:0:02:26 / Tue May 12 10:44:31 2015
GPGPU-Sim PTX: 11500000 instructions simulated : ctaid=(2,20,0) tid=(10,0,0)
GPGPU-Sim PTX: 11600000 instructions simulated : ctaid=(2,21,0) tid=(16,1,0)
GPGPU-Sim uArch: cycles simulated: 26500  inst.: 10405994 (ipc=392.7) sim_rate=69838 (inst/sec) elapsed = 0:0:02:29 / Tue May 12 10:44:34 2015
GPGPU-Sim PTX: 11700000 instructions simulated : ctaid=(3,18,0) tid=(15,0,0)
GPGPU-Sim PTX: 11800000 instructions simulated : ctaid=(1,19,0) tid=(1,1,0)
GPGPU-Sim uArch: cycles simulated: 27000  inst.: 10565227 (ipc=391.3) sim_rate=69968 (inst/sec) elapsed = 0:0:02:31 / Tue May 12 10:44:36 2015
GPGPU-Sim PTX: 11900000 instructions simulated : ctaid=(0,20,0) tid=(16,0,0)
GPGPU-Sim PTX: 12000000 instructions simulated : ctaid=(1,1,0) tid=(7,3,0)
GPGPU-Sim PTX: 12100000 instructions simulated : ctaid=(2,2,0) tid=(13,1,0)
GPGPU-Sim PTX: 12200000 instructions simulated : ctaid=(3,8,0) tid=(23,3,0)
GPGPU-Sim uArch: cycles simulated: 27500  inst.: 10926104 (ipc=397.3) sim_rate=70039 (inst/sec) elapsed = 0:0:02:36 / Tue May 12 10:44:41 2015
GPGPU-Sim PTX: 12300000 instructions simulated : ctaid=(1,15,0) tid=(3,1,0)
GPGPU-Sim uArch: cycles simulated: 28000  inst.: 11076390 (ipc=395.6) sim_rate=70103 (inst/sec) elapsed = 0:0:02:38 / Tue May 12 10:44:43 2015
GPGPU-Sim PTX: 12400000 instructions simulated : ctaid=(2,16,0) tid=(24,3,0)
GPGPU-Sim PTX: 12500000 instructions simulated : ctaid=(2,5,0) tid=(29,0,0)
GPGPU-Sim PTX: 12600000 instructions simulated : ctaid=(1,0,0) tid=(25,3,0)
GPGPU-Sim uArch: cycles simulated: 28500  inst.: 11295912 (ipc=396.3) sim_rate=70160 (inst/sec) elapsed = 0:0:02:41 / Tue May 12 10:44:46 2015
GPGPU-Sim PTX: 12700000 instructions simulated : ctaid=(0,1,0) tid=(7,3,0)
GPGPU-Sim PTX: 12800000 instructions simulated : ctaid=(2,9,0) tid=(7,1,0)
GPGPU-Sim PTX: 12900000 instructions simulated : ctaid=(0,17,0) tid=(25,3,0)
GPGPU-Sim PTX: 13000000 instructions simulated : ctaid=(0,6,0) tid=(13,1,0)
GPGPU-Sim uArch: cycles simulated: 29000  inst.: 11641500 (ipc=401.4) sim_rate=70129 (inst/sec) elapsed = 0:0:02:46 / Tue May 12 10:44:51 2015
GPGPU-Sim PTX: 13100000 instructions simulated : ctaid=(0,4,0) tid=(25,1,0)
GPGPU-Sim uArch: cycles simulated: 29500  inst.: 11765817 (ipc=398.8) sim_rate=70453 (inst/sec) elapsed = 0:0:02:47 / Tue May 12 10:44:52 2015
GPGPU-Sim PTX: 13200000 instructions simulated : ctaid=(3,14,0) tid=(14,1,0)
GPGPU-Sim PTX: 13300000 instructions simulated : ctaid=(2,20,0) tid=(31,1,0)
GPGPU-Sim PTX: 13400000 instructions simulated : ctaid=(2,18,0) tid=(9,2,0)
GPGPU-Sim uArch: cycles simulated: 30000  inst.: 12024238 (ipc=400.8) sim_rate=70317 (inst/sec) elapsed = 0:0:02:51 / Tue May 12 10:44:56 2015
GPGPU-Sim PTX: 13500000 instructions simulated : ctaid=(2,20,0) tid=(29,0,0)
GPGPU-Sim PTX: 13600000 instructions simulated : ctaid=(1,1,0) tid=(27,1,0)
GPGPU-Sim PTX: 13700000 instructions simulated : ctaid=(2,13,0) tid=(29,0,0)
GPGPU-Sim PTX: 13800000 instructions simulated : ctaid=(0,20,0) tid=(19,2,0)
GPGPU-Sim uArch: cycles simulated: 30500  inst.: 12331408 (ipc=404.3) sim_rate=70465 (inst/sec) elapsed = 0:0:02:55 / Tue May 12 10:45:00 2015
GPGPU-Sim PTX: 13900000 instructions simulated : ctaid=(0,3,0) tid=(18,0,0)
GPGPU-Sim uArch: cycles simulated: 31000  inst.: 12465249 (ipc=402.1) sim_rate=70425 (inst/sec) elapsed = 0:0:02:57 / Tue May 12 10:45:02 2015
GPGPU-Sim PTX: 14000000 instructions simulated : ctaid=(1,4,0) tid=(23,2,0)
GPGPU-Sim PTX: 14100000 instructions simulated : ctaid=(2,21,0) tid=(11,0,0)
GPGPU-Sim PTX: 14200000 instructions simulated : ctaid=(1,19,0) tid=(11,1,0)
GPGPU-Sim PTX: 14300000 instructions simulated : ctaid=(0,19,0) tid=(17,3,0)
GPGPU-Sim uArch: cycles simulated: 31500  inst.: 12769096 (ipc=405.4) sim_rate=70547 (inst/sec) elapsed = 0:0:03:01 / Tue May 12 10:45:06 2015
GPGPU-Sim PTX: 14400000 instructions simulated : ctaid=(0,22,0) tid=(17,0,0)
GPGPU-Sim PTX: 14500000 instructions simulated : ctaid=(2,20,0) tid=(18,2,0)
GPGPU-Sim uArch: cycles simulated: 32000  inst.: 13020494 (ipc=406.9) sim_rate=70381 (inst/sec) elapsed = 0:0:03:05 / Tue May 12 10:45:10 2015
GPGPU-Sim PTX: 14600000 instructions simulated : ctaid=(2,21,0) tid=(23,1,0)
GPGPU-Sim PTX: 14700000 instructions simulated : ctaid=(2,12,0) tid=(0,3,0)
GPGPU-Sim uArch: cycles simulated: 32500  inst.: 13201968 (ipc=406.2) sim_rate=70598 (inst/sec) elapsed = 0:0:03:07 / Tue May 12 10:45:12 2015
GPGPU-Sim PTX: 14800000 instructions simulated : ctaid=(1,1,0) tid=(21,1,0)
GPGPU-Sim PTX: 14900000 instructions simulated : ctaid=(2,13,0) tid=(23,1,0)
GPGPU-Sim PTX: 15000000 instructions simulated : ctaid=(2,10,0) tid=(18,0,0)
GPGPU-Sim PTX: 15100000 instructions simulated : ctaid=(1,20,0) tid=(28,2,0)
GPGPU-Sim uArch: cycles simulated: 33000  inst.: 13490930 (ipc=408.8) sim_rate=70633 (inst/sec) elapsed = 0:0:03:11 / Tue May 12 10:45:16 2015
GPGPU-Sim PTX: 15200000 instructions simulated : ctaid=(1,20,0) tid=(25,3,0)
GPGPU-Sim PTX: 15300000 instructions simulated : ctaid=(0,4,0) tid=(24,2,0)
GPGPU-Sim uArch: cycles simulated: 33500  inst.: 13737897 (ipc=410.1) sim_rate=70450 (inst/sec) elapsed = 0:0:03:15 / Tue May 12 10:45:20 2015
GPGPU-Sim PTX: 15400000 instructions simulated : ctaid=(2,21,0) tid=(8,3,0)
GPGPU-Sim PTX: 15500000 instructions simulated : ctaid=(2,8,0) tid=(13,3,0)
GPGPU-Sim PTX: 15600000 instructions simulated : ctaid=(0,21,0) tid=(15,3,0)
GPGPU-Sim uArch: cycles simulated: 34000  inst.: 13970786 (ipc=410.9) sim_rate=70559 (inst/sec) elapsed = 0:0:03:18 / Tue May 12 10:45:23 2015
GPGPU-Sim PTX: 15700000 instructions simulated : ctaid=(0,19,0) tid=(2,0,0)
GPGPU-Sim PTX: 15800000 instructions simulated : ctaid=(1,4,0) tid=(13,0,0)
GPGPU-Sim PTX: 15900000 instructions simulated : ctaid=(1,7,0) tid=(25,0,0)
GPGPU-Sim uArch: cycles simulated: 34500  inst.: 14264883 (ipc=413.5) sim_rate=70618 (inst/sec) elapsed = 0:0:03:22 / Tue May 12 10:45:27 2015
GPGPU-Sim PTX: 16000000 instructions simulated : ctaid=(0,18,0) tid=(8,2,0)
GPGPU-Sim PTX: 16100000 instructions simulated : ctaid=(0,12,0) tid=(28,0,0)
GPGPU-Sim PTX: 16200000 instructions simulated : ctaid=(2,0,0) tid=(23,0,0)
GPGPU-Sim uArch: cycles simulated: 35000  inst.: 14525182 (ipc=415.0) sim_rate=70854 (inst/sec) elapsed = 0:0:03:25 / Tue May 12 10:45:30 2015
GPGPU-Sim PTX: 16300000 instructions simulated : ctaid=(0,14,0) tid=(13,1,0)
GPGPU-Sim PTX: 16400000 instructions simulated : ctaid=(2,17,0) tid=(31,3,0)
GPGPU-Sim PTX: 16500000 instructions simulated : ctaid=(2,13,0) tid=(19,3,0)
GPGPU-Sim uArch: cycles simulated: 35500  inst.: 14782395 (ipc=416.4) sim_rate=70729 (inst/sec) elapsed = 0:0:03:29 / Tue May 12 10:45:34 2015
GPGPU-Sim PTX: 16600000 instructions simulated : ctaid=(0,20,0) tid=(11,3,0)
GPGPU-Sim PTX: 16700000 instructions simulated : ctaid=(2,20,0) tid=(5,0,0)
GPGPU-Sim PTX: 16800000 instructions simulated : ctaid=(2,12,0) tid=(17,0,0)
GPGPU-Sim uArch: cycles simulated: 36000  inst.: 15056635 (ipc=418.2) sim_rate=71021 (inst/sec) elapsed = 0:0:03:32 / Tue May 12 10:45:37 2015
GPGPU-Sim PTX: 16900000 instructions simulated : ctaid=(0,21,0) tid=(1,2,0)
GPGPU-Sim PTX: 17000000 instructions simulated : ctaid=(1,13,0) tid=(9,1,0)
GPGPU-Sim PTX: 17100000 instructions simulated : ctaid=(1,8,0) tid=(23,1,0)
GPGPU-Sim uArch: cycles simulated: 36500  inst.: 15321022 (ipc=419.8) sim_rate=70930 (inst/sec) elapsed = 0:0:03:36 / Tue May 12 10:45:41 2015
GPGPU-Sim PTX: 17200000 instructions simulated : ctaid=(2,18,0) tid=(3,3,0)
GPGPU-Sim PTX: 17300000 instructions simulated : ctaid=(1,9,0) tid=(13,0,0)
GPGPU-Sim uArch: cycles simulated: 37000  inst.: 15521836 (ipc=419.5) sim_rate=70875 (inst/sec) elapsed = 0:0:03:39 / Tue May 12 10:45:44 2015
GPGPU-Sim PTX: 17400000 instructions simulated : ctaid=(0,22,0) tid=(29,3,0)
GPGPU-Sim PTX: 17500000 instructions simulated : ctaid=(3,2,0) tid=(2,0,0)
GPGPU-Sim PTX: 17600000 instructions simulated : ctaid=(2,7,0) tid=(13,1,0)
GPGPU-Sim PTX: 17700000 instructions simulated : ctaid=(2,10,0) tid=(27,3,0)
GPGPU-Sim uArch: cycles simulated: 37500  inst.: 15816756 (ipc=421.8) sim_rate=70927 (inst/sec) elapsed = 0:0:03:43 / Tue May 12 10:45:48 2015
GPGPU-Sim PTX: 17800000 instructions simulated : ctaid=(1,9,0) tid=(23,1,0)
GPGPU-Sim PTX: 17900000 instructions simulated : ctaid=(1,11,0) tid=(5,1,0)
GPGPU-Sim PTX: 18000000 instructions simulated : ctaid=(2,5,0) tid=(26,2,0)
GPGPU-Sim uArch: cycles simulated: 38000  inst.: 16080309 (ipc=423.2) sim_rate=71151 (inst/sec) elapsed = 0:0:03:46 / Tue May 12 10:45:51 2015
GPGPU-Sim PTX: 18100000 instructions simulated : ctaid=(2,20,0) tid=(25,0,0)
GPGPU-Sim PTX: 18200000 instructions simulated : ctaid=(2,16,0) tid=(0,2,0)
GPGPU-Sim uArch: cycles simulated: 38500  inst.: 16290158 (ipc=423.1) sim_rate=71136 (inst/sec) elapsed = 0:0:03:49 / Tue May 12 10:45:54 2015
GPGPU-Sim PTX: 18300000 instructions simulated : ctaid=(0,8,0) tid=(13,1,0)
GPGPU-Sim PTX: 18400000 instructions simulated : ctaid=(3,4,0) tid=(9,3,0)
GPGPU-Sim PTX: 18500000 instructions simulated : ctaid=(1,21,0) tid=(1,1,0)
GPGPU-Sim uArch: cycles simulated: 39000  inst.: 16558708 (ipc=424.6) sim_rate=71067 (inst/sec) elapsed = 0:0:03:53 / Tue May 12 10:45:58 2015
GPGPU-Sim PTX: 18600000 instructions simulated : ctaid=(2,10,0) tid=(16,2,0)
GPGPU-Sim PTX: 18700000 instructions simulated : ctaid=(2,17,0) tid=(31,3,0)
GPGPU-Sim PTX: 18800000 instructions simulated : ctaid=(1,3,0) tid=(13,0,0)
GPGPU-Sim uArch: cycles simulated: 39500  inst.: 16806911 (ipc=425.5) sim_rate=71215 (inst/sec) elapsed = 0:0:03:56 / Tue May 12 10:46:01 2015
GPGPU-Sim PTX: 18900000 instructions simulated : ctaid=(1,18,0) tid=(21,0,0)
GPGPU-Sim PTX: 19000000 instructions simulated : ctaid=(1,6,0) tid=(23,1,0)
GPGPU-Sim PTX: 19100000 instructions simulated : ctaid=(0,13,0) tid=(27,0,0)
GPGPU-Sim uArch: cycles simulated: 40000  inst.: 17044008 (ipc=426.1) sim_rate=71016 (inst/sec) elapsed = 0:0:04:00 / Tue May 12 10:46:05 2015
GPGPU-Sim PTX: 19200000 instructions simulated : ctaid=(1,4,0) tid=(25,0,0)
GPGPU-Sim PTX: 19300000 instructions simulated : ctaid=(0,7,0) tid=(24,0,0)
GPGPU-Sim PTX: 19400000 instructions simulated : ctaid=(2,21,0) tid=(15,0,0)
GPGPU-Sim uArch: cycles simulated: 40500  inst.: 17328473 (ipc=427.9) sim_rate=71310 (inst/sec) elapsed = 0:0:04:03 / Tue May 12 10:46:08 2015
GPGPU-Sim PTX: 19500000 instructions simulated : ctaid=(2,11,0) tid=(13,1,0)
GPGPU-Sim PTX: 19600000 instructions simulated : ctaid=(2,0,0) tid=(7,0,0)
GPGPU-Sim PTX: 19700000 instructions simulated : ctaid=(0,22,0) tid=(30,0,0)
GPGPU-Sim uArch: cycles simulated: 41000  inst.: 17580104 (ipc=428.8) sim_rate=71174 (inst/sec) elapsed = 0:0:04:07 / Tue May 12 10:46:12 2015
GPGPU-Sim PTX: 19800000 instructions simulated : ctaid=(0,11,0) tid=(23,1,0)
GPGPU-Sim PTX: 19900000 instructions simulated : ctaid=(0,9,0) tid=(2,2,0)
GPGPU-Sim PTX: 20000000 instructions simulated : ctaid=(0,12,0) tid=(22,3,0)
GPGPU-Sim uArch: cycles simulated: 41500  inst.: 17860604 (ipc=430.4) sim_rate=71157 (inst/sec) elapsed = 0:0:04:11 / Tue May 12 10:46:16 2015
GPGPU-Sim PTX: 20100000 instructions simulated : ctaid=(1,16,0) tid=(21,2,0)
GPGPU-Sim PTX: 20200000 instructions simulated : ctaid=(0,17,0) tid=(27,1,0)
GPGPU-Sim PTX: 20300000 instructions simulated : ctaid=(1,1,0) tid=(17,1,0)
GPGPU-Sim uArch: cycles simulated: 42000  inst.: 18131406 (ipc=431.7) sim_rate=71383 (inst/sec) elapsed = 0:0:04:14 / Tue May 12 10:46:19 2015
GPGPU-Sim PTX: 20400000 instructions simulated : ctaid=(0,14,0) tid=(23,1,0)
GPGPU-Sim PTX: 20500000 instructions simulated : ctaid=(2,16,0) tid=(19,0,0)
GPGPU-Sim PTX: 20600000 instructions simulated : ctaid=(1,8,0) tid=(5,2,0)
GPGPU-Sim uArch: cycles simulated: 42500  inst.: 18387010 (ipc=432.6) sim_rate=71267 (inst/sec) elapsed = 0:0:04:18 / Tue May 12 10:46:23 2015
GPGPU-Sim PTX: 20700000 instructions simulated : ctaid=(1,14,0) tid=(9,1,0)
GPGPU-Sim PTX: 20800000 instructions simulated : ctaid=(1,16,0) tid=(15,3,0)
GPGPU-Sim PTX: 20900000 instructions simulated : ctaid=(1,16,0) tid=(20,2,0)
GPGPU-Sim uArch: cycles simulated: 43000  inst.: 18647423 (ipc=433.7) sim_rate=71446 (inst/sec) elapsed = 0:0:04:21 / Tue May 12 10:46:26 2015
GPGPU-Sim PTX: 21000000 instructions simulated : ctaid=(0,19,0) tid=(9,1,0)
GPGPU-Sim PTX: 21100000 instructions simulated : ctaid=(0,9,0) tid=(21,0,0)
GPGPU-Sim PTX: 21200000 instructions simulated : ctaid=(2,3,0) tid=(21,0,0)
GPGPU-Sim uArch: cycles simulated: 43500  inst.: 18909298 (ipc=434.7) sim_rate=71355 (inst/sec) elapsed = 0:0:04:25 / Tue May 12 10:46:30 2015
GPGPU-Sim PTX: 21300000 instructions simulated : ctaid=(1,22,0) tid=(21,3,0)
GPGPU-Sim PTX: 21400000 instructions simulated : ctaid=(0,15,0) tid=(2,0,0)
GPGPU-Sim PTX: 21500000 instructions simulated : ctaid=(1,10,0) tid=(22,2,0)
GPGPU-Sim uArch: cycles simulated: 44000  inst.: 19178672 (ipc=435.9) sim_rate=71296 (inst/sec) elapsed = 0:0:04:29 / Tue May 12 10:46:34 2015
GPGPU-Sim PTX: 21600000 instructions simulated : ctaid=(0,12,0) tid=(10,0,0)
GPGPU-Sim PTX: 21700000 instructions simulated : ctaid=(2,0,0) tid=(19,3,0)
GPGPU-Sim uArch: cycles simulated: 44500  inst.: 19417870 (ipc=436.4) sim_rate=71389 (inst/sec) elapsed = 0:0:04:32 / Tue May 12 10:46:37 2015
GPGPU-Sim PTX: 21800000 instructions simulated : ctaid=(1,17,0) tid=(5,0,0)
GPGPU-Sim PTX: 21900000 instructions simulated : ctaid=(2,18,0) tid=(19,0,0)
GPGPU-Sim PTX: 22000000 instructions simulated : ctaid=(3,9,0) tid=(5,0,0)
GPGPU-Sim PTX: 22100000 instructions simulated : ctaid=(1,14,0) tid=(19,2,0)
GPGPU-Sim uArch: cycles simulated: 45000  inst.: 19702211 (ipc=437.8) sim_rate=71384 (inst/sec) elapsed = 0:0:04:36 / Tue May 12 10:46:41 2015
GPGPU-Sim PTX: 22200000 instructions simulated : ctaid=(2,8,0) tid=(19,0,0)
GPGPU-Sim PTX: 22300000 instructions simulated : ctaid=(2,4,0) tid=(1,0,0)
GPGPU-Sim uArch: cycles simulated: 45500  inst.: 19955435 (ipc=438.6) sim_rate=71524 (inst/sec) elapsed = 0:0:04:39 / Tue May 12 10:46:44 2015
GPGPU-Sim PTX: 22400000 instructions simulated : ctaid=(3,0,0) tid=(5,0,0)
GPGPU-Sim PTX: 22500000 instructions simulated : ctaid=(1,15,0) tid=(15,0,0)
GPGPU-Sim PTX: 22600000 instructions simulated : ctaid=(0,18,0) tid=(3,1,0)
GPGPU-Sim uArch: cycles simulated: 46000  inst.: 20206856 (ipc=439.3) sim_rate=71402 (inst/sec) elapsed = 0:0:04:43 / Tue May 12 10:46:48 2015
GPGPU-Sim PTX: 22700000 instructions simulated : ctaid=(1,20,0) tid=(26,2,0)
GPGPU-Sim PTX: 22800000 instructions simulated : ctaid=(1,5,0) tid=(21,3,0)
GPGPU-Sim PTX: 22900000 instructions simulated : ctaid=(1,15,0) tid=(26,1,0)
GPGPU-Sim uArch: cycles simulated: 46500  inst.: 20501669 (ipc=440.9) sim_rate=71684 (inst/sec) elapsed = 0:0:04:46 / Tue May 12 10:46:51 2015
GPGPU-Sim PTX: 23000000 instructions simulated : ctaid=(1,10,0) tid=(10,1,0)
GPGPU-Sim PTX: 23100000 instructions simulated : ctaid=(2,5,0) tid=(0,3,0)
GPGPU-Sim PTX: 23200000 instructions simulated : ctaid=(3,16,0) tid=(7,2,0)
GPGPU-Sim uArch: cycles simulated: 47000  inst.: 20750134 (ipc=441.5) sim_rate=71552 (inst/sec) elapsed = 0:0:04:50 / Tue May 12 10:46:55 2015
GPGPU-Sim PTX: 23300000 instructions simulated : ctaid=(1,1,0) tid=(21,0,0)
GPGPU-Sim PTX: 23400000 instructions simulated : ctaid=(2,11,0) tid=(7,2,0)
GPGPU-Sim PTX: 23500000 instructions simulated : ctaid=(0,5,0) tid=(25,0,0)
GPGPU-Sim uArch: cycles simulated: 47500  inst.: 21017858 (ipc=442.5) sim_rate=71733 (inst/sec) elapsed = 0:0:04:53 / Tue May 12 10:46:58 2015
GPGPU-Sim PTX: 23600000 instructions simulated : ctaid=(2,11,0) tid=(9,0,0)
GPGPU-Sim PTX: 23700000 instructions simulated : ctaid=(0,11,0) tid=(25,3,0)
GPGPU-Sim PTX: 23800000 instructions simulated : ctaid=(1,0,0) tid=(19,1,0)
GPGPU-Sim uArch: cycles simulated: 48000  inst.: 21301734 (ipc=443.8) sim_rate=71723 (inst/sec) elapsed = 0:0:04:57 / Tue May 12 10:47:02 2015
GPGPU-Sim PTX: 23900000 instructions simulated : ctaid=(1,21,0) tid=(5,3,0)
GPGPU-Sim PTX: 24000000 instructions simulated : ctaid=(0,19,0) tid=(5,3,0)
GPGPU-Sim PTX: 24100000 instructions simulated : ctaid=(0,18,0) tid=(5,2,0)
GPGPU-Sim uArch: cycles simulated: 48500  inst.: 21534296 (ipc=444.0) sim_rate=71780 (inst/sec) elapsed = 0:0:05:00 / Tue May 12 10:47:05 2015
GPGPU-Sim PTX: 24200000 instructions simulated : ctaid=(1,2,0) tid=(5,3,0)
GPGPU-Sim PTX: 24300000 instructions simulated : ctaid=(2,15,0) tid=(13,3,0)
GPGPU-Sim PTX: 24400000 instructions simulated : ctaid=(1,16,0) tid=(6,0,0)
GPGPU-Sim uArch: cycles simulated: 49000  inst.: 21809399 (ipc=445.1) sim_rate=71741 (inst/sec) elapsed = 0:0:05:04 / Tue May 12 10:47:09 2015
GPGPU-Sim PTX: 24500000 instructions simulated : ctaid=(0,0,0) tid=(17,0,0)
GPGPU-Sim PTX: 24600000 instructions simulated : ctaid=(2,15,0) tid=(28,1,0)
GPGPU-Sim PTX: 24700000 instructions simulated : ctaid=(0,3,0) tid=(23,2,0)
GPGPU-Sim uArch: cycles simulated: 49500  inst.: 22073286 (ipc=445.9) sim_rate=71666 (inst/sec) elapsed = 0:0:05:08 / Tue May 12 10:47:13 2015
GPGPU-Sim PTX: 24800000 instructions simulated : ctaid=(2,1,0) tid=(11,0,0)
GPGPU-Sim PTX: 24900000 instructions simulated : ctaid=(2,3,0) tid=(11,0,0)
GPGPU-Sim PTX: 25000000 instructions simulated : ctaid=(1,10,0) tid=(11,1,0)
GPGPU-Sim uArch: cycles simulated: 50000  inst.: 22324648 (ipc=446.5) sim_rate=71783 (inst/sec) elapsed = 0:0:05:11 / Tue May 12 10:47:16 2015
GPGPU-Sim PTX: 25100000 instructions simulated : ctaid=(0,15,0) tid=(24,3,0)
GPGPU-Sim PTX: 25200000 instructions simulated : ctaid=(0,7,0) tid=(23,3,0)
GPGPU-Sim PTX: 25300000 instructions simulated : ctaid=(1,17,0) tid=(0,2,0)
GPGPU-Sim uArch: cycles simulated: 50500  inst.: 22619600 (ipc=447.9) sim_rate=71808 (inst/sec) elapsed = 0:0:05:15 / Tue May 12 10:47:20 2015
GPGPU-Sim PTX: 25400000 instructions simulated : ctaid=(0,13,0) tid=(1,2,0)
GPGPU-Sim PTX: 25500000 instructions simulated : ctaid=(0,4,0) tid=(1,1,0)
GPGPU-Sim PTX: 25600000 instructions simulated : ctaid=(2,14,0) tid=(29,2,0)
GPGPU-Sim uArch: cycles simulated: 51000  inst.: 22848880 (ipc=448.0) sim_rate=71851 (inst/sec) elapsed = 0:0:05:18 / Tue May 12 10:47:23 2015
GPGPU-Sim PTX: 25700000 instructions simulated : ctaid=(3,20,0) tid=(17,3,0)
GPGPU-Sim PTX: 25800000 instructions simulated : ctaid=(2,20,0) tid=(29,2,0)
GPGPU-Sim PTX: 25900000 instructions simulated : ctaid=(1,11,0) tid=(11,0,0)
GPGPU-Sim uArch: cycles simulated: 51500  inst.: 23125528 (ipc=449.0) sim_rate=71818 (inst/sec) elapsed = 0:0:05:22 / Tue May 12 10:47:27 2015
GPGPU-Sim PTX: 26000000 instructions simulated : ctaid=(0,19,0) tid=(22,1,0)
GPGPU-Sim PTX: 26100000 instructions simulated : ctaid=(2,17,0) tid=(5,0,0)
GPGPU-Sim PTX: 26200000 instructions simulated : ctaid=(0,4,0) tid=(17,1,0)
GPGPU-Sim uArch: cycles simulated: 52000  inst.: 23409826 (ipc=450.2) sim_rate=71809 (inst/sec) elapsed = 0:0:05:26 / Tue May 12 10:47:31 2015
GPGPU-Sim PTX: 26300000 instructions simulated : ctaid=(2,19,0) tid=(22,2,0)
GPGPU-Sim PTX: 26400000 instructions simulated : ctaid=(0,12,0) tid=(25,1,0)
GPGPU-Sim uArch: cycles simulated: 52500  inst.: 23612526 (ipc=449.8) sim_rate=71770 (inst/sec) elapsed = 0:0:05:29 / Tue May 12 10:47:34 2015
GPGPU-Sim PTX: 26500000 instructions simulated : ctaid=(0,10,0) tid=(1,3,0)
GPGPU-Sim PTX: 26600000 instructions simulated : ctaid=(0,7,0) tid=(25,0,0)
GPGPU-Sim PTX: 26700000 instructions simulated : ctaid=(3,6,0) tid=(2,0,0)
GPGPU-Sim PTX: 26800000 instructions simulated : ctaid=(2,4,0) tid=(11,2,0)
GPGPU-Sim uArch: cycles simulated: 53000  inst.: 23935694 (ipc=451.6) sim_rate=71878 (inst/sec) elapsed = 0:0:05:33 / Tue May 12 10:47:38 2015
GPGPU-Sim PTX: 26900000 instructions simulated : ctaid=(1,17,0) tid=(27,1,0)
GPGPU-Sim PTX: 27000000 instructions simulated : ctaid=(0,5,0) tid=(17,1,0)
GPGPU-Sim uArch: cycles simulated: 53500  inst.: 24138506 (ipc=451.2) sim_rate=71840 (inst/sec) elapsed = 0:0:05:36 / Tue May 12 10:47:41 2015
GPGPU-Sim PTX: 27100000 instructions simulated : ctaid=(2,12,0) tid=(0,3,0)
GPGPU-Sim PTX: 27200000 instructions simulated : ctaid=(1,20,0) tid=(21,3,0)
GPGPU-Sim PTX: 27300000 instructions simulated : ctaid=(1,20,0) tid=(18,2,0)
GPGPU-Sim uArch: cycles simulated: 54000  inst.: 24408512 (ipc=452.0) sim_rate=72001 (inst/sec) elapsed = 0:0:05:39 / Tue May 12 10:47:44 2015
GPGPU-Sim PTX: 27400000 instructions simulated : ctaid=(0,13,0) tid=(5,0,0)
GPGPU-Sim PTX: 27500000 instructions simulated : ctaid=(1,11,0) tid=(11,1,0)
GPGPU-Sim PTX: 27600000 instructions simulated : ctaid=(0,1,0) tid=(13,3,0)
GPGPU-Sim PTX: 27700000 instructions simulated : ctaid=(2,21,0) tid=(2,0,0)
GPGPU-Sim uArch: cycles simulated: 54500  inst.: 24719414 (ipc=453.6) sim_rate=72068 (inst/sec) elapsed = 0:0:05:43 / Tue May 12 10:47:48 2015
GPGPU-Sim PTX: 27800000 instructions simulated : ctaid=(2,21,0) tid=(3,3,0)
GPGPU-Sim PTX: 27900000 instructions simulated : ctaid=(0,14,0) tid=(18,1,0)
GPGPU-Sim uArch: cycles simulated: 55000  inst.: 24867108 (ipc=452.1) sim_rate=71870 (inst/sec) elapsed = 0:0:05:46 / Tue May 12 10:47:51 2015
GPGPU-Sim PTX: 28000000 instructions simulated : ctaid=(1,5,0) tid=(30,0,0)
GPGPU-Sim PTX: 28100000 instructions simulated : ctaid=(0,16,0) tid=(10,0,0)
GPGPU-Sim PTX: 28200000 instructions simulated : ctaid=(3,15,0) tid=(2,3,0)
GPGPU-Sim uArch: cycles simulated: 55500  inst.: 25168176 (ipc=453.5) sim_rate=71909 (inst/sec) elapsed = 0:0:05:50 / Tue May 12 10:47:55 2015
GPGPU-Sim PTX: 28300000 instructions simulated : ctaid=(1,4,0) tid=(5,3,0)
GPGPU-Sim PTX: 28400000 instructions simulated : ctaid=(0,11,0) tid=(29,1,0)
GPGPU-Sim PTX: 28500000 instructions simulated : ctaid=(0,2,0) tid=(1,2,0)
GPGPU-Sim uArch: cycles simulated: 56000  inst.: 25445618 (ipc=454.4) sim_rate=72083 (inst/sec) elapsed = 0:0:05:53 / Tue May 12 10:47:58 2015
GPGPU-Sim PTX: 28600000 instructions simulated : ctaid=(1,15,0) tid=(19,0,0)
GPGPU-Sim PTX: 28700000 instructions simulated : ctaid=(1,8,0) tid=(16,1,0)
GPGPU-Sim uArch: cycles simulated: 56500  inst.: 25652570 (ipc=454.0) sim_rate=72057 (inst/sec) elapsed = 0:0:05:56 / Tue May 12 10:48:01 2015
GPGPU-Sim PTX: 28800000 instructions simulated : ctaid=(2,10,0) tid=(28,0,0)
GPGPU-Sim PTX: 28900000 instructions simulated : ctaid=(0,19,0) tid=(21,0,0)
GPGPU-Sim PTX: 29000000 instructions simulated : ctaid=(2,7,0) tid=(23,2,0)
GPGPU-Sim PTX: 29100000 instructions simulated : ctaid=(1,2,0) tid=(18,3,0)
GPGPU-Sim uArch: cycles simulated: 57000  inst.: 25976806 (ipc=455.7) sim_rate=72157 (inst/sec) elapsed = 0:0:06:00 / Tue May 12 10:48:05 2015
GPGPU-Sim PTX: 29200000 instructions simulated : ctaid=(0,2,0) tid=(12,0,0)
GPGPU-Sim PTX: 29300000 instructions simulated : ctaid=(2,17,0) tid=(12,1,0)
GPGPU-Sim uArch: cycles simulated: 57500  inst.: 26147348 (ipc=454.7) sim_rate=72031 (inst/sec) elapsed = 0:0:06:03 / Tue May 12 10:48:08 2015
GPGPU-Sim PTX: 29400000 instructions simulated : ctaid=(0,22,0) tid=(14,0,0)
GPGPU-Sim PTX: 29500000 instructions simulated : ctaid=(0,13,0) tid=(9,1,0)
GPGPU-Sim PTX: 29600000 instructions simulated : ctaid=(1,19,0) tid=(7,2,0)
GPGPU-Sim uArch: cycles simulated: 58000  inst.: 26450329 (ipc=456.0) sim_rate=72071 (inst/sec) elapsed = 0:0:06:07 / Tue May 12 10:48:12 2015
GPGPU-Sim PTX: 29700000 instructions simulated : ctaid=(0,9,0) tid=(14,3,0)
GPGPU-Sim PTX: 29800000 instructions simulated : ctaid=(2,16,0) tid=(6,3,0)
GPGPU-Sim PTX: 29900000 instructions simulated : ctaid=(1,12,0) tid=(31,3,0)
GPGPU-Sim uArch: cycles simulated: 58500  inst.: 26711852 (ipc=456.6) sim_rate=72194 (inst/sec) elapsed = 0:0:06:10 / Tue May 12 10:48:15 2015
GPGPU-Sim PTX: 30000000 instructions simulated : ctaid=(3,10,0) tid=(11,0,0)
GPGPU-Sim PTX: 30100000 instructions simulated : ctaid=(0,19,0) tid=(8,0,0)
GPGPU-Sim PTX: 30200000 instructions simulated : ctaid=(1,18,0) tid=(8,1,0)
GPGPU-Sim uArch: cycles simulated: 59000  inst.: 26915369 (ipc=456.2) sim_rate=72159 (inst/sec) elapsed = 0:0:06:13 / Tue May 12 10:48:18 2015
GPGPU-Sim PTX: 30300000 instructions simulated : ctaid=(3,6,0) tid=(6,3,0)
GPGPU-Sim PTX: 30400000 instructions simulated : ctaid=(0,8,0) tid=(10,3,0)
GPGPU-Sim PTX: 30500000 instructions simulated : ctaid=(0,9,0) tid=(8,0,0)
GPGPU-Sim uArch: cycles simulated: 59500  inst.: 27230468 (ipc=457.7) sim_rate=72229 (inst/sec) elapsed = 0:0:06:17 / Tue May 12 10:48:22 2015
GPGPU-Sim PTX: 30600000 instructions simulated : ctaid=(3,21,0) tid=(31,2,0)
GPGPU-Sim PTX: 30700000 instructions simulated : ctaid=(2,18,0) tid=(8,0,0)
GPGPU-Sim PTX: 30800000 instructions simulated : ctaid=(0,3,0) tid=(29,1,0)
GPGPU-Sim uArch: cycles simulated: 60000  inst.: 27443289 (ipc=457.4) sim_rate=72219 (inst/sec) elapsed = 0:0:06:20 / Tue May 12 10:48:25 2015
GPGPU-Sim PTX: 30900000 instructions simulated : ctaid=(0,0,0) tid=(21,0,0)
GPGPU-Sim PTX: 31000000 instructions simulated : ctaid=(0,1,0) tid=(2,1,0)
GPGPU-Sim uArch: cycles simulated: 60500  inst.: 27667730 (ipc=457.3) sim_rate=72239 (inst/sec) elapsed = 0:0:06:23 / Tue May 12 10:48:28 2015
GPGPU-Sim PTX: 31100000 instructions simulated : ctaid=(2,4,0) tid=(12,1,0)
GPGPU-Sim PTX: 31200000 instructions simulated : ctaid=(0,4,0) tid=(31,0,0)
GPGPU-Sim PTX: 31300000 instructions simulated : ctaid=(2,9,0) tid=(29,0,0)
GPGPU-Sim PTX: 31400000 instructions simulated : ctaid=(0,3,0) tid=(3,0,0)
GPGPU-Sim uArch: cycles simulated: 61000  inst.: 28010349 (ipc=459.2) sim_rate=72191 (inst/sec) elapsed = 0:0:06:28 / Tue May 12 10:48:33 2015
GPGPU-Sim PTX: 31500000 instructions simulated : ctaid=(2,13,0) tid=(19,1,0)
GPGPU-Sim PTX: 31600000 instructions simulated : ctaid=(0,1,0) tid=(30,2,0)
GPGPU-Sim uArch: cycles simulated: 61500  inst.: 28183894 (ipc=458.3) sim_rate=72266 (inst/sec) elapsed = 0:0:06:30 / Tue May 12 10:48:35 2015
GPGPU-Sim PTX: 31700000 instructions simulated : ctaid=(0,20,0) tid=(5,0,0)
GPGPU-Sim PTX: 31800000 instructions simulated : ctaid=(3,11,0) tid=(16,2,0)
GPGPU-Sim PTX: 31900000 instructions simulated : ctaid=(0,2,0) tid=(8,3,0)
GPGPU-Sim uArch: cycles simulated: 62000  inst.: 28445847 (ipc=458.8) sim_rate=72197 (inst/sec) elapsed = 0:0:06:34 / Tue May 12 10:48:39 2015
GPGPU-Sim PTX: 32000000 instructions simulated : ctaid=(0,12,0) tid=(13,1,0)
GPGPU-Sim PTX: 32100000 instructions simulated : ctaid=(3,10,0) tid=(2,2,0)
GPGPU-Sim PTX: 32200000 instructions simulated : ctaid=(0,21,0) tid=(11,1,0)
GPGPU-Sim uArch: cycles simulated: 62500  inst.: 28745701 (ipc=459.9) sim_rate=72225 (inst/sec) elapsed = 0:0:06:38 / Tue May 12 10:48:43 2015
GPGPU-Sim PTX: 32300000 instructions simulated : ctaid=(2,13,0) tid=(12,0,0)
GPGPU-Sim PTX: 32400000 instructions simulated : ctaid=(0,1,0) tid=(11,1,0)
GPGPU-Sim uArch: cycles simulated: 63000  inst.: 28919862 (ipc=459.0) sim_rate=72299 (inst/sec) elapsed = 0:0:06:40 / Tue May 12 10:48:45 2015
GPGPU-Sim PTX: 32500000 instructions simulated : ctaid=(0,15,0) tid=(2,2,0)
GPGPU-Sim PTX: 32600000 instructions simulated : ctaid=(2,6,0) tid=(1,0,0)
GPGPU-Sim PTX: 32700000 instructions simulated : ctaid=(1,11,0) tid=(26,3,0)
GPGPU-Sim PTX: 32800000 instructions simulated : ctaid=(1,0,0) tid=(20,2,0)
GPGPU-Sim uArch: cycles simulated: 63500  inst.: 29222871 (ipc=460.2) sim_rate=72333 (inst/sec) elapsed = 0:0:06:44 / Tue May 12 10:48:49 2015
GPGPU-Sim PTX: 32900000 instructions simulated : ctaid=(1,8,0) tid=(3,3,0)
GPGPU-Sim PTX: 33000000 instructions simulated : ctaid=(2,1,0) tid=(10,1,0)
GPGPU-Sim PTX: 33100000 instructions simulated : ctaid=(0,19,0) tid=(20,1,0)
GPGPU-Sim uArch: cycles simulated: 64000  inst.: 29483260 (ipc=460.7) sim_rate=72262 (inst/sec) elapsed = 0:0:06:48 / Tue May 12 10:48:53 2015
GPGPU-Sim PTX: 33200000 instructions simulated : ctaid=(1,2,0) tid=(28,0,0)
GPGPU-Sim PTX: 33300000 instructions simulated : ctaid=(0,17,0) tid=(31,3,0)
GPGPU-Sim uArch: cycles simulated: 64500  inst.: 29714971 (ipc=460.7) sim_rate=72299 (inst/sec) elapsed = 0:0:06:51 / Tue May 12 10:48:56 2015
GPGPU-Sim PTX: 33400000 instructions simulated : ctaid=(2,12,0) tid=(1,3,0)
GPGPU-Sim PTX: 33500000 instructions simulated : ctaid=(2,18,0) tid=(22,2,0)
GPGPU-Sim PTX: 33600000 instructions simulated : ctaid=(1,9,0) tid=(12,1,0)
GPGPU-Sim PTX: 33700000 instructions simulated : ctaid=(0,21,0) tid=(28,1,0)
GPGPU-Sim uArch: cycles simulated: 65000  inst.: 30036169 (ipc=462.1) sim_rate=72376 (inst/sec) elapsed = 0:0:06:55 / Tue May 12 10:49:00 2015
GPGPU-Sim PTX: 33800000 instructions simulated : ctaid=(0,19,0) tid=(24,0,0)
GPGPU-Sim PTX: 33900000 instructions simulated : ctaid=(3,2,0) tid=(2,0,0)
GPGPU-Sim uArch: cycles simulated: 65500  inst.: 30226856 (ipc=461.5) sim_rate=72313 (inst/sec) elapsed = 0:0:06:58 / Tue May 12 10:49:03 2015
GPGPU-Sim PTX: 34000000 instructions simulated : ctaid=(1,10,0) tid=(2,0,0)
GPGPU-Sim PTX: 34100000 instructions simulated : ctaid=(0,6,0) tid=(23,0,0)
GPGPU-Sim PTX: 34200000 instructions simulated : ctaid=(0,10,0) tid=(13,2,0)
GPGPU-Sim uArch: cycles simulated: 66000  inst.: 30511206 (ipc=462.3) sim_rate=72473 (inst/sec) elapsed = 0:0:07:01 / Tue May 12 10:49:06 2015
GPGPU-Sim PTX: 34300000 instructions simulated : ctaid=(0,4,0) tid=(31,3,0)
GPGPU-Sim PTX: 34400000 instructions simulated : ctaid=(1,9,0) tid=(19,1,0)
GPGPU-Sim PTX: 34500000 instructions simulated : ctaid=(0,21,0) tid=(17,1,0)
GPGPU-Sim uArch: cycles simulated: 66500  inst.: 30790810 (ipc=463.0) sim_rate=72448 (inst/sec) elapsed = 0:0:07:05 / Tue May 12 10:49:10 2015
GPGPU-Sim PTX: 34600000 instructions simulated : ctaid=(0,5,0) tid=(8,1,0)
GPGPU-Sim PTX: 34700000 instructions simulated : ctaid=(2,10,0) tid=(29,2,0)
GPGPU-Sim uArch: cycles simulated: 67000  inst.: 30960724 (ipc=462.1) sim_rate=72338 (inst/sec) elapsed = 0:0:07:08 / Tue May 12 10:49:13 2015
GPGPU-Sim PTX: 34800000 instructions simulated : ctaid=(2,4,0) tid=(26,3,0)
GPGPU-Sim PTX: 34900000 instructions simulated : ctaid=(0,0,0) tid=(9,0,0)
GPGPU-Sim PTX: 35000000 instructions simulated : ctaid=(0,9,0) tid=(20,1,0)
GPGPU-Sim PTX: 35100000 instructions simulated : ctaid=(1,4,0) tid=(15,2,0)
GPGPU-Sim uArch: cycles simulated: 67500  inst.: 31289744 (ipc=463.6) sim_rate=72429 (inst/sec) elapsed = 0:0:07:12 / Tue May 12 10:49:17 2015
GPGPU-Sim PTX: 35200000 instructions simulated : ctaid=(1,8,0) tid=(7,2,0)
GPGPU-Sim PTX: 35300000 instructions simulated : ctaid=(0,5,0) tid=(30,3,0)
GPGPU-Sim uArch: cycles simulated: 68000  inst.: 31506245 (ipc=463.3) sim_rate=72428 (inst/sec) elapsed = 0:0:07:15 / Tue May 12 10:49:20 2015
GPGPU-Sim PTX: 35400000 instructions simulated : ctaid=(3,16,0) tid=(6,1,0)
GPGPU-Sim PTX: 35500000 instructions simulated : ctaid=(2,10,0) tid=(10,3,0)
GPGPU-Sim PTX: 35600000 instructions simulated : ctaid=(1,12,0) tid=(5,1,0)
GPGPU-Sim uArch: cycles simulated: 68500  inst.: 31739735 (ipc=463.4) sim_rate=72465 (inst/sec) elapsed = 0:0:07:18 / Tue May 12 10:49:23 2015
GPGPU-Sim PTX: 35700000 instructions simulated : ctaid=(2,1,0) tid=(28,3,0)
GPGPU-Sim PTX: 35800000 instructions simulated : ctaid=(1,7,0) tid=(17,0,0)
GPGPU-Sim PTX: 35900000 instructions simulated : ctaid=(1,19,0) tid=(26,1,0)
GPGPU-Sim PTX: 36000000 instructions simulated : ctaid=(1,21,0) tid=(28,1,0)
GPGPU-Sim uArch: cycles simulated: 69000  inst.: 32064704 (ipc=464.7) sim_rate=72544 (inst/sec) elapsed = 0:0:07:22 / Tue May 12 10:49:27 2015
GPGPU-Sim PTX: 36100000 instructions simulated : ctaid=(0,15,0) tid=(13,2,0)
GPGPU-Sim PTX: 36200000 instructions simulated : ctaid=(2,1,0) tid=(7,1,0)
GPGPU-Sim uArch: cycles simulated: 69500  inst.: 32259857 (ipc=464.2) sim_rate=72494 (inst/sec) elapsed = 0:0:07:25 / Tue May 12 10:49:30 2015
GPGPU-Sim PTX: 36300000 instructions simulated : ctaid=(2,6,0) tid=(25,1,0)
GPGPU-Sim PTX: 36400000 instructions simulated : ctaid=(1,13,0) tid=(12,2,0)
GPGPU-Sim PTX: 36500000 instructions simulated : ctaid=(0,13,0) tid=(11,0,0)
GPGPU-Sim uArch: cycles simulated: 70000  inst.: 32558787 (ipc=465.1) sim_rate=72514 (inst/sec) elapsed = 0:0:07:29 / Tue May 12 10:49:34 2015
GPGPU-Sim PTX: 36600000 instructions simulated : ctaid=(1,9,0) tid=(3,1,0)
GPGPU-Sim PTX: 36700000 instructions simulated : ctaid=(2,16,0) tid=(18,3,0)
GPGPU-Sim PTX: 36800000 instructions simulated : ctaid=(1,16,0) tid=(11,2,0)
GPGPU-Sim uArch: cycles simulated: 70500  inst.: 32850330 (ipc=466.0) sim_rate=72517 (inst/sec) elapsed = 0:0:07:33 / Tue May 12 10:49:38 2015
GPGPU-Sim PTX: 36900000 instructions simulated : ctaid=(2,20,0) tid=(3,1,0)
GPGPU-Sim PTX: 37000000 instructions simulated : ctaid=(0,16,0) tid=(22,0,0)
GPGPU-Sim PTX: 37100000 instructions simulated : ctaid=(1,5,0) tid=(21,1,0)
GPGPU-Sim uArch: cycles simulated: 71000  inst.: 33090146 (ipc=466.1) sim_rate=72566 (inst/sec) elapsed = 0:0:07:36 / Tue May 12 10:49:41 2015
GPGPU-Sim PTX: 37200000 instructions simulated : ctaid=(3,5,0) tid=(17,0,0)
GPGPU-Sim PTX: 37300000 instructions simulated : ctaid=(2,20,0) tid=(0,3,0)
GPGPU-Sim PTX: 37400000 instructions simulated : ctaid=(1,12,0) tid=(4,1,0)
GPGPU-Sim uArch: cycles simulated: 71500  inst.: 33387417 (ipc=467.0) sim_rate=72581 (inst/sec) elapsed = 0:0:07:40 / Tue May 12 10:49:45 2015
GPGPU-Sim PTX: 37500000 instructions simulated : ctaid=(1,18,0) tid=(4,2,0)
GPGPU-Sim PTX: 37600000 instructions simulated : ctaid=(0,8,0) tid=(29,0,0)
GPGPU-Sim PTX: 37700000 instructions simulated : ctaid=(1,3,0) tid=(13,3,0)
GPGPU-Sim uArch: cycles simulated: 72000  inst.: 33622440 (ipc=467.0) sim_rate=72618 (inst/sec) elapsed = 0:0:07:43 / Tue May 12 10:49:48 2015
GPGPU-Sim PTX: 37800000 instructions simulated : ctaid=(0,12,0) tid=(19,1,0)
GPGPU-Sim PTX: 37900000 instructions simulated : ctaid=(2,8,0) tid=(23,2,0)
GPGPU-Sim PTX: 38000000 instructions simulated : ctaid=(0,6,0) tid=(31,0,0)
GPGPU-Sim uArch: cycles simulated: 72500  inst.: 33908662 (ipc=467.7) sim_rate=72609 (inst/sec) elapsed = 0:0:07:47 / Tue May 12 10:49:52 2015
GPGPU-Sim PTX: 38100000 instructions simulated : ctaid=(0,7,0) tid=(14,1,0)
GPGPU-Sim PTX: 38200000 instructions simulated : ctaid=(2,18,0) tid=(30,1,0)
GPGPU-Sim PTX: 38300000 instructions simulated : ctaid=(1,15,0) tid=(30,1,0)
GPGPU-Sim uArch: cycles simulated: 73000  inst.: 34168112 (ipc=468.1) sim_rate=72698 (inst/sec) elapsed = 0:0:07:50 / Tue May 12 10:49:55 2015
GPGPU-Sim PTX: 38400000 instructions simulated : ctaid=(1,22,0) tid=(7,1,0)
GPGPU-Sim PTX: 38500000 instructions simulated : ctaid=(0,9,0) tid=(6,2,0)
[...]
maxmrqlatency = 646 
maxdqlatency = 0 
maxmflatency = 1183 
averagemflatency = 279 
max_icnt2mem_latency = 495 
max_icnt2sh_latency = 236238 
mrq_lat_table:42595 	3270 	3690 	10374 	20871 	21755 	16163 	5140 	884 	20 	0 	0 	0 	0 	0 	0 	0 	0 	0 	0 	0 	0 	0 	0 	0 	0 	0 	0 	0 	0 	0 	0 	
dq_lat_table:0 	0 	0 	0 	0 	0 	0 	0 	0 	0 	0 	0 	0 	0 	0 	0 	0 	0 	0 	0 	0 	0 	0 	0 	0 	0 	0 	0 	0 	0 	0 	0 	
mf_lat_table:0 	0 	0 	0 	0 	0 	0 	76219 	94661 	6359 	134 	0 	0 	0 	0 	0 	0 	0 	0 	0 	0 	0 	0 	0 	0 	0 	0 	0 	0 	0 	0 	0 	
icnt2mem_lat_table:0 	0 	0 	80354 	54922 	36288 	5331 	407 	281 	0 	0 	0 	0 	0 	0 	0 	0 	0 	0 	0 	0 	0 	0 	0 	
icnt2sh_lat_table:0 	0 	0 	21267 	62846 	26154 	856 	0 	0 	0 	0 	0 	736 	3414 	6935 	15565 	31743 	7857 	0 	0 	0 	0 	0 	0 	
mf_lat_pw_table:0 	0 	0 	0 	0 	0 	0 	279 	185 	3 	0 	0 	0 	0 	0 	0 	0 	0 	0 	0 	0 	0 	0 	0 	0 	0 	0 	0 	0 	0 	0 	0 	
maximum concurrent accesses to same row:
dram[0]:        31        38        51        22        48        18        30        30        70        70        37        38        46        35        25        51 
dram[1]:        36        26        48        31        28        33        30        30        68        64        37        29        40        34        33        47 
dram[2]:        25        36        23        30        18        25        31        32        70        61        25        37        15        31        35        48 
dram[3]:        29        41        27        50        21        34        31        30        66        74        42        31        23        34        25        42 
dram[4]:        22        45        26        50        34        31        30        30        69        69        43        36        28        40        35        27 
dram[5]:        22        40        25        33        31        31        30        37        70        68        44        29        27        39        49        35 
maximum service time to same row:
dram[0]:     11825     11284     14909     14908     14115     14139     16047     16088     11398     11681     11441     11716     11177     11309     11284     11144 
dram[1]:     11650     12912     14954     14647     13856     14093     15810     16103     11385     11703     11410     11769     11299     11584     11150     11491 
dram[2]:     12372     12877     14882     14656     13930     14038     16047     15884     11560     11694     11788     11612     10938     11325     11300     11335 
dram[3]:     11012     12969     14946     14872     14070     14110     16094     16139     11669     11772     11541     11733     11213     11470     11149     11313 
dram[4]:     10709     12875     14658     14885     13865     14132     16099     15818     11661     11690     11490     11543     11228     11362     11251     11334 
dram[5]:     10870     12882     14640     14891     14057     14097     16095     15809     11680     11575     11600     11749     11008     11392     11504     11310 
average row accesses per activate:
dram[0]:  3.131707  3.364116  3.278351  3.052758  3.296392  2.943182  3.329114  3.018391  3.496124  3.483544  3.310777  3.130024  3.266497  2.997642  3.180451  3.271574 
dram[1]:  3.252525  2.976635  3.216080  3.145320  3.184080  3.161369  3.135714  2.963636  3.501292  3.498734  3.213592  3.384615  3.363158  3.277635  3.141439  3.281726 
dram[2]:  3.194514  3.042959  3.070048  3.098795  3.050239  3.078571  3.091981  2.807281  3.484615  3.536896  3.523809  3.223039  3.114078  3.055289  3.158809  3.287918 
dram[3]:  3.336787  3.089806  3.177500  3.338542  3.047393  3.131707  3.067916  3.159806  3.533854  3.543590  3.568365  3.364103  3.222785  3.148781  3.115196  3.166253 
dram[4]:  3.071942  2.992974  3.183417  3.184729  3.167076  2.956322  3.174757  3.066038  3.417085  3.380835  3.374684  3.232099  3.276923  3.414438  3.300771  3.062802 
dram[5]:  3.217172  3.225888  2.992974  3.329870  2.970046  3.091566  3.011521  3.111905  3.501285  3.528351  3.351899  3.265509  3.189526  3.262087  3.218045  3.188442 
average row locality = 124762/38859 = 3.210633
number of total memory accesses made:
dram[0]:         0         0         0         0         0         0         0         0         0         0         0         0         0         0         0         0 
dram[1]:         0         0         0         0         0         0         0         0         0         0         0         0         0         0         0         0 
dram[2]:         0         0         0         0         0         0         0         0         0         0         0         0         0         0         0         0 
dram[3]:         0         0         0         0         0         0         0         0         0         0         0         0         0         0         0         0 
dram[4]:         0         0         0         0         0         0         0         0         0         0         0         0         0         0         0         0 
dram[5]:         0         0         0         0         0         0         0         0         0         0         0         0         0         0         0         0 
total accesses: 0
min_bank_accesses = 0!
min_chip_accesses = 0!
number of total read accesses:
dram[0]:       666       662       663       660       670       672       692       702       686       697       674       679       666       658       663       659 
dram[1]:       659       666       664       659       674       669       699       693       694       693       676       681       662       662       656       666 
dram[2]:       662       665       661       664       667       678       694       697       690       695       675       678       670       656       664       657 
dram[3]:       663       662       662       658       676       671       698       693       690       695       674       681       660       663       661       661 
dram[4]:       662       666       657       667       670       676       700       690       694       690       681       672       663       657       662       658 
dram[5]:       665       657       663       657       671       676       695       692       690       695       675       681       664       660       664       658 
total reads: 64611
bank skew: 702/656 = 1.07
chip skew: 10773/10763 = 1.00
number of total write accesses:
dram[0]:       618       613       609       613       609       623       623       611       667       679       647       645       621       613       606       630 
dram[1]:       629       608       616       618       606       624       618       611       661       689       648       639       616       613       610       627 
dram[2]:       619       610       610       622       608       615       617       614       669       695       657       637       613       615       609       622 
dram[3]:       625       611       609       624       610       613       612       612       667       687       657       631       613       628       610       615 
dram[4]:       619       612       610       626       619       610       608       610       666       686       652       637       615       620       622       610 
dram[5]:       609       614       615       625       618       607       612       615       672       674       649       635       615       622       620       611 
total reads: 60151
bank skew: 695/606 = 1.15
chip skew: 10033/10013 = 1.00
average mf latency per bank:
dram[0]:        402       387       403       387       402       391       408       396       403       401       403       385       408       392       402       392
dram[1]:        397       383       403       393       403       398       403       397       408       406       403       401       395       403       408       393
dram[2]:        389       385       396       384       384       401       404       395       399       398       400       391       386       401       399       390
dram[3]:        393       386       391       401       395       398       398       407       404       407       414       395       390       395       392       393
dram[4]:        387       400       391       411       400       389       401       405       401       404       397       398       402       416       395       397
dram[5]:        382       400       383       401       379       401       390       412       388       403       395       400       400       406       402       398
maximum mf latency per bank:
dram[0]:        768       852       855       761       897       642       632       599      1096      1148       920       860       803       805       761       864
dram[1]:        770       653       797       754       721       649       739       674      1065      1111       832       930       823       857       795       808
dram[2]:        692       778       714       658       632       757       839       606      1048      1183       946       808       785       754       834       803
dram[3]:        756       794       675       804       723       801       774       697      1071      1181      1018       834       833       724       662       798
dram[4]:        657       851       745       949       743       771       623       706      1045      1181       995       875       831       786       818       800
dram[5]:        800       814       643       783       705       729       638       818      1001      1137       956       911       833       818       926       783

Number of Memory Banks Accessed per Memory Operation per Warp (from 0):
0	0	0	0	0	0	0	0	0	0	0	0	0	0	0	0	0	0	0	0	0	0	0	0	0	0	0	0	0	0	0	0	0	0	0	0	0	0	0	0	0	0	0	0	0	0	0	0	0	0	0	0	0	0	0	0	0	0	0	0	0	0	0	0	0	0	0	0	0	0	0	0	0	0	0	0	0	0	0	0	0	0	0	0	0	0	0	0	0	0	0	0	0	0	0	0	
Average # of Memory Banks Accessed per Memory Operation per Warp=-nan

position of mrq chosen
0	0	0	0	0	0	0	0	0	0	0	0	0	0	0	0	

average position of mrq chosen = -nan
Memory Partition 0: 
Cache L2_bank_000:
MSHR contents

Cache L2_bank_001:
MSHR contents

In Dram Latency Queue (total = 0): 
DRAM[0]: 16 bks, busW=4 BL=8 CL=12, tRRD=2 tCCD=6, tRCD=12 tRAS=28 tRP=12 tRC=40
n_cmd=311835 n_nop=262296 n_act=6467 n_pre=6451 n_req=20796 n_rd=21538 n_write=15083 bw_util=0.2349
n_activity=207658 dram_eff=0.3527
bk0: 1332a 281950i bk1: 1324a 282208i bk2: 1326a 281400i bk3: 1320a 279875i bk4: 1340a 280980i bk5: 1344a 278660i bk6: 1384a 281139i bk7: 1404a 279261i bk8: 1372a 280457i bk9: 1394a 280319i bk10: 1348a 281190i bk11: 1358a 280800i bk12: 1332a 280762i bk13: 1316a 280595i bk14: 1326a 281999i bk15: 1318a 281407i 
dram_util_bins: 0 0 0 0 0 0 0 0 0 0
dram_eff_bins: 0 0 0 0 0 0 0 0 0 0
mrqq: max=16 avg=2.94264
Memory Partition 1: 
Cache L2_bank_002:
MSHR contents

Cache L2_bank_003:
MSHR contents

In Dram Latency Queue (total = 0): 
DRAM[1]: 16 bks, busW=4 BL=8 CL=12, tRRD=2 tCCD=6, tRCD=12 tRAS=28 tRP=12 tRC=40
n_cmd=311835 n_nop=262309 n_act=6449 n_pre=6433 n_req=20806 n_rd=21546 n_write=15098 bw_util=0.235
n_activity=207695 dram_eff=0.3529
bk0: 1318a 282475i bk1: 1332a 281034i bk2: 1328a 280726i bk3: 1318a 280510i bk4: 1348a 280471i bk5: 1338a 279978i bk6: 1398a 280188i bk7: 1386a 279657i bk8: 1388a 280961i bk9: 1386a 280869i bk10: 1352a 280608i bk11: 1362a 279888i bk12: 1324a 282017i bk13: 1324a 281288i bk14: 1312a 281840i bk15: 1332a 281442i 
dram_util_bins: 0 0 0 0 0 0 0 0 0 0
dram_eff_bins: 0 0 0 0 0 0 0 0 0 0
mrqq: max=16 avg=2.93944
Memory Partition 2: 
Cache L2_bank_004:
MSHR contents

Cache L2_bank_005:
MSHR contents

In Dram Latency Queue (total = 0): 
DRAM[2]: 16 bks, busW=4 BL=8 CL=12, tRRD=2 tCCD=6, tRCD=12 tRAS=28 tRP=12 tRC=40
n_cmd=311835 n_nop=262089 n_act=6567 n_pre=6551 n_req=20805 n_rd=21546 n_write=15082 bw_util=0.2349
n_activity=207307 dram_eff=0.3534
bk0: 1324a 281599i bk1: 1330a 280736i bk2: 1322a 280964i bk3: 1328a 280223i bk4: 1334a 280847i bk5: 1356a 279109i bk6: 1388a 281053i bk7: 1394a 279287i bk8: 1380a 281154i bk9: 1390a 280721i bk10: 1350a 280562i bk11: 1356a 279792i bk12: 1340a 280951i bk13: 1312a 279894i bk14: 1328a 281975i bk15: 1314a 280940i 
dram_util_bins: 0 0 0 0 0 0 0 0 0 0
dram_eff_bins: 0 0 0 0 0 0 0 0 0 0
mrqq: max=16 avg=2.88315
Memory Partition 3: 
Cache L2_bank_006:
MSHR contents

Cache L2_bank_007:
MSHR contents
MSHR: tag=0x807a0580, atomic=0 1 entries : 0x7ff71f3fa6e0 :  mf: uid=914660, sid07:w00, part=3, addr=0x807a0580, load , size=128, unknown  status = IN_PARTITION_DRAM (236235), 

In Dram Latency Queue (total = 0): 
DRAM[3]: 16 bks, busW=4 BL=8 CL=12, tRRD=2 tCCD=6, tRCD=12 tRAS=28 tRP=12 tRC=40
n_cmd=311835 n_nop=262414 n_act=6407 n_pre=6391 n_req=20792 n_rd=21536 n_write=15087 bw_util=0.2349
n_activity=207324 dram_eff=0.3533
bk0: 1326a 282001i bk1: 1324a 280948i bk2: 1324a 281719i bk3: 1316a 280060i bk4: 1352a 280667i bk5: 1342a 279750i bk6: 1396a 280842i bk7: 1386a 279844i bk8: 1380a 280927i bk9: 1390a 280779i bk10: 1348a 280584i bk11: 1362a 280238i bk12: 1320a 280628i bk13: 1326a 280690i bk14: 1322a 281167i bk15: 1322a 280874i 
dram_util_bins: 0 0 0 0 0 0 0 0 0 0
dram_eff_bins: 0 0 0 0 0 0 0 0 0 0
mrqq: max=16 avg=2.9369
Memory Partition 4: 
Cache L2_bank_008:
MSHR contents

Cache L2_bank_009:
MSHR contents

In Dram Latency Queue (total = 0): 
DRAM[4]: 16 bks, busW=4 BL=8 CL=12, tRRD=2 tCCD=6, tRCD=12 tRAS=28 tRP=12 tRC=40
n_cmd=311835 n_nop=262246 n_act=6498 n_pre=6482 n_req=20787 n_rd=21530 n_write=15079 bw_util=0.2348
n_activity=207445 dram_eff=0.353
bk0: 1324a 281593i bk1: 1332a 280562i bk2: 1314a 280538i bk3: 1334a 280006i bk4: 1340a 280660i bk5: 1352a 279600i bk6: 1400a 280358i bk7: 1380a 279591i bk8: 1388a 281279i bk9: 1380a 280260i bk10: 1362a 280757i bk11: 1344a 280562i bk12: 1326a 281100i bk13: 1314a 281574i bk14: 1324a 281728i bk15: 1316a 280887i 
dram_util_bins: 0 0 0 0 0 0 0 0 0 0
dram_eff_bins: 0 0 0 0 0 0 0 0 0 0
mrqq: max=16 avg=2.9749
Memory Partition 5: 
Cache L2_bank_010:
MSHR contents

Cache L2_bank_011:
MSHR contents

In Dram Latency Queue (total = 0): 
DRAM[5]: 16 bks, busW=4 BL=8 CL=12, tRRD=2 tCCD=6, tRCD=12 tRAS=28 tRP=12 tRC=40
n_cmd=311835 n_nop=262315 n_act=6471 n_pre=6455 n_req=20776 n_rd=21526 n_write=15068 bw_util=0.2347
n_activity=207015 dram_eff=0.3535
bk0: 1330a 282586i bk1: 1314a 281758i bk2: 1326a 279887i bk3: 1314a 281081i bk4: 1342a 279711i bk5: 1352a 279658i bk6: 1390a 280641i bk7: 1384a 279758i bk8: 1380a 281587i bk9: 1390a 280428i bk10: 1350a 280173i bk11: 1362a 280467i bk12: 1328a 280569i bk13: 1320a 280896i bk14: 1328a 280552i bk15: 1316a 280799i 
dram_util_bins: 0 0 0 0 0 0 0 0 0 0
dram_eff_bins: 0 0 0 0 0 0 0 0 0 0
mrqq: max=16 avg=2.94066

========= L2 cache stats =========
L2_cache_bank[0]: Access = 14823, Miss = 5380, Miss_rate = 0.363, Pending_hits = 3191, Reservation_fails = 738
L2_cache_bank[1]: Access = 14798, Miss = 5389, Miss_rate = 0.364, Pending_hits = 3218, Reservation_fails = 501
L2_cache_bank[2]: Access = 14819, Miss = 5384, Miss_rate = 0.363, Pending_hits = 3185, Reservation_fails = 646
L2_cache_bank[3]: Access = 14776, Miss = 5389, Miss_rate = 0.365, Pending_hits = 3228, Reservation_fails = 860
L2_cache_bank[4]: Access = 14816, Miss = 5383, Miss_rate = 0.363, Pending_hits = 3174, Reservation_fails = 552
L2_cache_bank[5]: Access = 14774, Miss = 5390, Miss_rate = 0.365, Pending_hits = 3312, Reservation_fails = 443
L2_cache_bank[6]: Access = 14824, Miss = 5384, Miss_rate = 0.363, Pending_hits = 3169, Reservation_fails = 308
L2_cache_bank[7]: Access = 14778, Miss = 5384, Miss_rate = 0.364, Pending_hits = 3261, Reservation_fails = 286
L2_cache_bank[8]: Access = 14816, Miss = 5389, Miss_rate = 0.364, Pending_hits = 3237, Reservation_fails = 504
L2_cache_bank[9]: Access = 14775, Miss = 5376, Miss_rate = 0.364, Pending_hits = 3243, Reservation_fails = 151
L2_cache_bank[10]: Access = 14805, Miss = 5387, Miss_rate = 0.364, Pending_hits = 3229, Reservation_fails = 474
L2_cache_bank[11]: Access = 14779, Miss = 5376, Miss_rate = 0.364, Pending_hits = 3200, Reservation_fails = 86
L2_total_cache_accesses = 177583
L2_total_cache_misses = 64611
L2_total_cache_miss_rate = 0.3638
L2_total_cache_pending_hits = 38647
L2_total_cache_reservation_fails = 5549
L2_total_cache_breakdown:
	L2_cache_stats_breakdown[GLOBAL_ACC_R][HIT] = 56308
	L2_cache_stats_breakdown[GLOBAL_ACC_R][HIT_RESERVED] = 22152
	L2_cache_stats_breakdown[GLOBAL_ACC_R][MISS] = 32648
	L2_cache_stats_breakdown[GLOBAL_ACC_R][RESERVATION_FAIL] = 4016
	L2_cache_stats_breakdown[CONST_ACC_R][HIT] = 11
	L2_cache_stats_breakdown[CONST_ACC_R][HIT_RESERVED] = 3
	L2_cache_stats_breakdown[CONST_ACC_R][MISS] = 1
	L2_cache_stats_breakdown[CONST_ACC_R][RESERVATION_FAIL] = 109
	L2_cache_stats_breakdown[GLOBAL_ACC_W][HIT] = 17852
	L2_cache_stats_breakdown[GLOBAL_ACC_W][HIT_RESERVED] = 16450
	L2_cache_stats_breakdown[GLOBAL_ACC_W][MISS] = 31948
	L2_cache_stats_breakdown[GLOBAL_ACC_W][RESERVATION_FAIL] = 178
	L2_cache_stats_breakdown[INST_ACC_R][HIT] = 154
	L2_cache_stats_breakdown[INST_ACC_R][HIT_RESERVED] = 42
	L2_cache_stats_breakdown[INST_ACC_R][MISS] = 14
	L2_cache_stats_breakdown[INST_ACC_R][RESERVATION_FAIL] = 1246
L2_cache_data_port_util = 0.105
L2_cache_fill_port_util = 0.091

icnt_total_pkts_mem_to_simt=622885
icnt_total_pkts_simt_to_mem=337583
LD_mem_lat_dist  0 0 0 0 0 0 0 0 0 0 0 0 0 0 0 0 0 0 0 0 0 0 0 0 0 0 0
ST_mem_lat_dist  0 0 0 0 0 0 0 0 0 0 0 0 0 0 0 0 0 0 0 0 0 0 0 0 0 0 0
----------------------------Interconnect-DETAILS--------------------------------
Class 0:
Packet latency average = 19.348
	minimum = 6
	maximum = 436
Network latency average = 15.2304
	minimum = 6
	maximum = 379
Slowest packet = 5536
Flit latency average = 13.0731
	minimum = 6
	maximum = 379
Slowest flit = 15918
Fragmentation average = 0.00437823
	minimum = 0
	maximum = 145
Injected packet rate average = 0.0556822
	minimum = 0.0432443 (at node 9)
	maximum = 0.06275 (at node 21)
Accepted packet rate average = 0.0556822
	minimum = 0.0432443 (at node 9)
	maximum = 0.06275 (at node 21)
Injected flit rate average = 0.15058
	minimum = 0.0804948 (at node 9)
	maximum = 0.220252 (at node 21)
Accepted flit rate average= 0.15058
	minimum = 0.118964 (at node 24)
	maximum = 0.196847 (at node 7)
Injected packet length average = 2.70428
Accepted packet length average = 2.70428
Total in-flight flits = 0 (0 measured)
====== Overall Traffic Statistics ======
====== Traffic class 0 ======
Packet latency average = 19.348 (1 samples)
	minimum = 6 (1 samples)
	maximum = 436 (1 samples)
Network latency average = 15.2304 (1 samples)
	minimum = 6 (1 samples)
	maximum = 379 (1 samples)
Flit latency average = 13.0731 (1 samples)
	minimum = 6 (1 samples)
	maximum = 379 (1 samples)
Fragmentation average = 0.00437823 (1 samples)
	minimum = 0 (1 samples)
	maximum = 145 (1 samples)
Injected packet rate average = 0.0556822 (1 samples)
	minimum = 0.0432443 (1 samples)
	maximum = 0.06275 (1 samples)
Accepted packet rate average = 0.0556822 (1 samples)
	minimum = 0.0432443 (1 samples)
	maximum = 0.06275 (1 samples)
Injected flit rate average = 0.15058 (1 samples)
	minimum = 0.0804948 (1 samples)
	maximum = 0.220252 (1 samples)
Accepted flit rate average = 0.15058 (1 samples)
	minimum = 0.118964 (1 samples)
	maximum = 0.196847 (1 samples)
Injected packet size average = 2.70428 (1 samples)
Accepted packet size average = 2.70428 (1 samples)
Hops average = 1 (1 samples)
----------------------------END-of-Interconnect-DETAILS-------------------------


gpgpu_simulation_time = 0 days, 0 hrs, 17 min, 11 sec (1031 sec)
gpgpu_simulation_rate = 70525 (inst/sec)
gpgpu_simulation_rate = 229 (cycle/sec)
GPGPU-Sim: synchronize waiting for inactive GPU simulation
GPGPU-Sim API: Stream Manager State
GPGPU-Sim: detected inactive GPU simulation thread

1x GPU_laplace3d: 1028544.875000 (ms) 

Copy u2 to host: 425.813995 (ms) 

1x Gold_laplace3d: 6.158000 (ms) 
 

 rms error = 0.000000 
CUDA_SAFE_CALL( cudaFree(d_u1) );
CUDA_SAFE_CALL( cudaFree(d_u2) );
free(h_u1);
free(h_u2);
free(h_u3);

Press ENTER to exit...
