

        *** GPGPU-Sim Simulator Version 3.2.2  [build 0] ***


GPGPU-Sim PTX: simulation mode 0 (can change with PTX_SIM_MODE_FUNC environment variable:
               1=functional simulation only, 0=detailed performance simulator)
GPGPU-Sim: Configuration options:

-network_mode                           1 # Interconnection network mode
-inter_config_file   config_fermi_islip.icnt # Interconnection network config file
-gpgpu_ptx_use_cuobjdump                    1 # Use cuobjdump to extract ptx and sass from binaries
-gpgpu_experimental_lib_support                    0 # Try to extract code from cuda libraries [Broken because of unknown cudaGetExportTable]
-gpgpu_ptx_convert_to_ptxplus                    0 # Convert SASS (native ISA) to ptxplus and run ptxplus
-gpgpu_ptx_force_max_capability                   20 # Force maximum compute capability
-gpgpu_ptx_inst_debug_to_file                    0 # Dump executed instructions' debug information to file
-gpgpu_ptx_inst_debug_file       inst_debug.txt # Executed instructions' debug output file
-gpgpu_ptx_inst_debug_thread_uid                    1 # Thread UID for executed instructions' debug output
-gpgpu_simd_model                       1 # 1 = post-dominator
-gpgpu_shader_core_pipeline              1536:32 # shader core pipeline config, i.e., {<nthread>:<warpsize>}
-gpgpu_tex_cache:l1  4:128:24,L:R:m:N:L,F:128:4,128:2 # per-shader L1 texture cache  (READ-ONLY) config  {<nsets>:<bsize>:<assoc>,<rep>:<wr>:<alloc>:<wr_alloc>,<mshr>:<N>:<merge>,<mq>:<rf>}
-gpgpu_const_cache:l1 64:64:2,L:R:f:N:L,A:2:32,4 # per-shader L1 constant memory cache  (READ-ONLY) config  {<nsets>:<bsize>:<assoc>,<rep>:<wr>:<alloc>:<wr_alloc>,<mshr>:<N>:<merge>,<mq>} 
-gpgpu_cache:il1     4:128:4,L:R:f:N:L,A:2:32,4 # shader L1 instruction cache config  {<nsets>:<bsize>:<assoc>,<rep>:<wr>:<alloc>:<wr_alloc>,<mshr>:<N>:<merge>,<mq>} 
-gpgpu_cache:dl1     32:128:4,L:L:m:N:H,A:32:8,8 # per-shader L1 data cache config  {<nsets>:<bsize>:<assoc>,<rep>:<wr>:<alloc>:<wr_alloc>,<mshr>:<N>:<merge>,<mq> | none}
-gpgpu_cache:dl1PrefL1                 none # per-shader L1 data cache config  {<nsets>:<bsize>:<assoc>,<rep>:<wr>:<alloc>:<wr_alloc>,<mshr>:<N>:<merge>,<mq> | none}
-gpgpu_cache:dl1PreShared                 none # per-shader L1 data cache config  {<nsets>:<bsize>:<assoc>,<rep>:<wr>:<alloc>:<wr_alloc>,<mshr>:<N>:<merge>,<mq> | none}
-gmem_skip_L1D                          0 # global memory access skip L1D cache (implements -Xptxas -dlcm=cg, default=no skip)
-gpgpu_perfect_mem                      0 # enable perfect memory mode (no cache miss)
-n_regfile_gating_group                    4 # group of lanes that should be read/written together)
-gpgpu_clock_gated_reg_file                    0 # enable clock gated reg file for power calculations
-gpgpu_clock_gated_lanes                    0 # enable clock gated lanes for power calculations
-gpgpu_shader_registers                32768 # Number of registers per shader core. Limits number of concurrent CTAs. (default 8192)
-gpgpu_shader_cta                       8 # Maximum number of concurrent CTAs in shader (default 8)
-gpgpu_num_cta_barriers                   16 # Maximum number of named barriers per CTA (default 16)
-gpgpu_n_clusters                      15 # number of processing clusters
-gpgpu_n_cores_per_cluster                    1 # number of simd cores per cluster
-gpgpu_n_cluster_ejection_buffer_size                    8 # number of packets in ejection buffer
-gpgpu_n_ldst_response_buffer_size                    2 # number of response packets in ld/st unit ejection buffer
-gpgpu_shmem_size                   16384 # Size of shared memory per shader core (default 16kB)
-gpgpu_shmem_size                   49152 # Size of shared memory per shader core (default 16kB)
-gpgpu_shmem_size_PrefL1                16384 # Size of shared memory per shader core (default 16kB)
-gpgpu_shmem_size_PrefShared                16384 # Size of shared memory per shader core (default 16kB)
-gpgpu_shmem_num_banks                   32 # Number of banks in the shared memory in each shader core (default 16)
-gpgpu_shmem_limited_broadcast                    0 # Limit shared memory to do one broadcast per cycle (default on)
-gpgpu_shmem_warp_parts                    1 # Number of portions a warp is divided into for shared memory bank conflict check 
-gpgpu_warpdistro_shader                   -1 # Specify which shader core to collect the warp size distribution from
-gpgpu_warp_issue_shader                    0 # Specify which shader core to collect the warp issue distribution from
-gpgpu_local_mem_map                    1 # Mapping from local memory space address to simulated GPU physical address space (default = enabled)
-gpgpu_num_reg_banks                   16 # Number of register banks (default = 8)
-gpgpu_reg_bank_use_warp_id                    0 # Use warp ID in mapping registers to banks (default = off)
-gpgpu_operand_collector_num_units_sp                    6 # number of collector units (default = 4)
-gpgpu_operand_collector_num_units_sfu                    8 # number of collector units (default = 4)
-gpgpu_operand_collector_num_units_mem                    2 # number of collector units (default = 2)
-gpgpu_operand_collector_num_units_gen                    0 # number of collector units (default = 0)
-gpgpu_operand_collector_num_in_ports_sp                    2 # number of collector unit in ports (default = 1)
-gpgpu_operand_collector_num_in_ports_sfu                    1 # number of collector unit in ports (default = 1)
-gpgpu_operand_collector_num_in_ports_mem                    1 # number of collector unit in ports (default = 1)
-gpgpu_operand_collector_num_in_ports_gen                    0 # number of collector unit in ports (default = 0)
-gpgpu_operand_collector_num_out_ports_sp                    2 # number of collector unit in ports (default = 1)
-gpgpu_operand_collector_num_out_ports_sfu                    1 # number of collector unit in ports (default = 1)
-gpgpu_operand_collector_num_out_ports_mem                    1 # number of collector unit in ports (default = 1)
-gpgpu_operand_collector_num_out_ports_gen                    0 # number of collector unit in ports (default = 0)
-gpgpu_coalesce_arch                   13 # Coalescing arch (default = 13, anything else is off for now)
-gpgpu_num_sched_per_core                    1 # Number of warp schedulers per core
-gpgpu_max_insn_issue_per_warp                    1 # Max number of instructions that can be issued per warp in one cycle by scheduler
-gpgpu_simt_core_sim_order                    1 # Select the simulation order of cores in a cluster (0=Fix, 1=Round-Robin)
-gpgpu_pipeline_widths        2,1,1,2,1,1,2 # Pipeline widths ID_OC_SP,ID_OC_SFU,ID_OC_MEM,OC_EX_SP,OC_EX_SFU,OC_EX_MEM,EX_WB
-gpgpu_num_sp_units                     2 # Number of SP units (default=1)
-gpgpu_num_sfu_units                    1 # Number of SF units (default=1)
-gpgpu_num_mem_units                    1 # Number if ldst units (default=1) WARNING: not hooked up to anything
-gpgpu_scheduler                      gto # Scheduler configuration: < lrr | gto | two_level_active > If two_level_active:<num_active_warps>:<inner_prioritization>:<outer_prioritization>For complete list of prioritization values see shader.h enum scheduler_prioritization_typeDefault: gto
-gpgpu_dram_scheduler                    1 # 0 = fifo, 1 = FR-FCFS (defaul)
-gpgpu_dram_partition_queues              8:8:8:8 # i2$:$2d:d2$:$2i
-l2_ideal                               0 # Use a ideal L2 cache that always hit
-gpgpu_cache:dl2     64:128:8,L:B:m:W:L,A:32:4,4:0,32 # unified banked L2 data cache config  {<nsets>:<bsize>:<assoc>,<rep>:<wr>:<alloc>:<wr_alloc>,<mshr>:<N>:<merge>,<mq>}
-gpgpu_cache:dl2_texture_only                    0 # L2 cache used for texture only
-gpgpu_n_mem                            6 # number of memory modules (e.g. memory controllers) in gpu
-gpgpu_n_sub_partition_per_mchannel                    2 # number of memory subpartition in each memory module
-gpgpu_n_mem_per_ctrlr                    2 # number of memory chips per memory controller
-gpgpu_memlatency_stat                   14 # track and display latency statistics 0x2 enables MC, 0x4 enables queue logs
-gpgpu_frfcfs_dram_sched_queue_size                   16 # 0 = unlimited (default); # entries per chip
-gpgpu_dram_return_queue_size                  116 # 0 = unlimited (default); # entries per chip
-gpgpu_dram_buswidth                    4 # default = 4 bytes (8 bytes per cycle at DDR)
-gpgpu_dram_burst_length                    8 # Burst length of each DRAM request (default = 4 data bus cycle)
-dram_data_command_freq_ratio                    4 # Frequency ratio between DRAM data bus and command bus (default = 2 times, i.e. DDR)
-gpgpu_dram_timing_opt nbk=16:CCD=2:RRD=6:RCD=12:RAS=28:RP=12:RC=40: CL=12:WL=4:CDLR=5:WR=12:nbkgrp=4:CCDL=3:RTPL=2 # DRAM timing parameters = {nbk:tCCD:tRRD:tRCD:tRAS:tRP:tRC:CL:WL:tCDLR:tWR:nbkgrp:tCCDL:tRTPL}
-rop_latency                          120 # ROP queue latency (default 85)
-dram_latency                         100 # DRAM latency (default 30)
-gpgpu_mem_addr_mapping dramid@8;00000000.00000000.00000000.00000000.0000RRRR.RRRRRRRR.BBBCCCCB.CCSSSSSS # mapping memory address to dram model {dramid@<start bit>;<memory address map>}
-gpgpu_mem_addr_test                    0 # run sweep test to check address mapping for aliased address
-gpgpu_mem_address_mask                    1 # 0 = old addressing mask, 1 = new addressing mask, 2 = new add. mask + flipped bank sel and chip sel bits
-gpuwattch_xml_file  gpuwattch_gtx480.xml # GPUWattch XML file
-power_simulation_enabled                    1 # Turn on power simulator (1=On, 0=Off)
-power_per_cycle_dump                    0 # Dump detailed power output each cycle
-power_trace_enabled                    0 # produce a file for the power trace (1=On, 0=Off)
-power_trace_zlevel                     6 # Compression level of the power trace output log (0=no comp, 9=highest)
-steady_power_levels_enabled                    0 # produce a file for the steady power levels (1=On, 0=Off)
-steady_state_definition                  8:4 # allowed deviation:number of samples
-gpgpu_max_cycle                        0 # terminates gpu simulation early (0 = no limit)
-gpgpu_max_insn                         0 # terminates gpu simulation early (0 = no limit)
-gpgpu_max_cta                          0 # terminates gpu simulation early (0 = no limit)
-gpgpu_runtime_stat                   500 # display runtime statistics such as dram utilization {<freq>:<flag>}
-liveness_message_freq                    1 # Minimum number of seconds between simulation liveness messages (0 = always print)
-gpgpu_flush_l1_cache                    0 # Flush L1 cache at the end of each kernel call
-gpgpu_flush_l2_cache                    0 # Flush L2 cache at the end of each kernel call
-gpgpu_deadlock_detect                    1 # Stop the simulation at deadlock (1=on (default), 0=off)
-gpgpu_ptx_instruction_classification                    0 # if enabled will classify ptx instruction types per kernel (Max 255 kernels now)
-gpgpu_ptx_sim_mode                     0 # Select between Performance (default) or Functional simulation (1)
-gpgpu_clock_domains 700.0:700.0:700.0:924.0 # Clock Domain Frequencies in MhZ {<Core Clock>:<ICNT Clock>:<L2 Clock>:<DRAM Clock>}
-gpgpu_max_concurrent_kernel                    8 # maximum kernels that can run concurrently on GPU
-gpgpu_cflog_interval                    0 # Interval between each snapshot in control flow logger
-visualizer_enabled                     0 # Turn on visualizer output (1=On, 0=Off)
-visualizer_outputfile                 NULL # Specifies the output log file for visualizer
-visualizer_zlevel                      6 # Compression level of the visualizer output log (0=no comp, 9=highest)
-trace_enabled                          0 # Turn on traces
-trace_components                    none # comma seperated list of traces to enable. Complete list found in trace_streams.tup. Default none
-trace_sampling_core                    0 # The core which is printed using CORE_DPRINTF. Default 0
-trace_sampling_memory_partition                   -1 # The memory partition which is printed using MEMPART_DPRINTF. Default -1 (i.e. all)
-enable_ptx_file_line_stats                    1 # Turn on PTX source line statistic profiling. (1 = On)
-ptx_line_stats_filename gpgpu_inst_stats.txt # Output file for PTX source line statistics.
-save_embedded_ptx                      0 # saves ptx files embedded in binary as <n>.ptx
-keep                                   0 # keep intermediate files created by GPGPU-Sim when interfacing with external programs
-gpgpu_ptx_save_converted_ptxplus                    0 # Saved converted ptxplus to a file
-ptx_opcode_latency_int         4,13,4,5,145 # Opcode latencies for integers <ADD,MAX,MUL,MAD,DIV>Default 1,1,19,25,145
-ptx_opcode_latency_fp          4,13,4,5,39 # Opcode latencies for single precision floating points <ADD,MAX,MUL,MAD,DIV>Default 1,1,1,1,30
-ptx_opcode_latency_dp         8,19,8,8,330 # Opcode latencies for double precision floating points <ADD,MAX,MUL,MAD,DIV>Default 8,8,8,8,335
-ptx_opcode_initiation_int            1,2,2,1,8 # Opcode initiation intervals for integers <ADD,MAX,MUL,MAD,DIV>Default 1,1,4,4,32
-ptx_opcode_initiation_fp            1,2,1,1,4 # Opcode initiation intervals for single precision floating points <ADD,MAX,MUL,MAD,DIV>Default 1,1,1,1,5
-ptx_opcode_initiation_dp         8,16,8,8,130 # Opcode initiation intervals for double precision floating points <ADD,MAX,MUL,MAD,DIV>Default 8,8,8,8,130
DRAM Timing Options:
nbk                                    16 # number of banks
CCD                                     2 # column to column delay
RRD                                     6 # minimal delay between activation of rows in different banks
RCD                                    12 # row to column delay
RAS                                    28 # time needed to activate row
RP                                     12 # time needed to precharge (deactivate) row
RC                                     40 # row cycle time
CDLR                                    5 # switching from write to read (changes tWTR)
WR                                     12 # last data-in to row precharge
CL                                     12 # CAS latency
WL                                      4 # Write latency
nbkgrp                                  4 # number of bank groups
CCDL                                    3 # column to column delay between accesses to different bank groups
RTPL                                    2 # read to precharge delay between accesses to different bank groups
Total number of memory sub partition = 12
addr_dec_mask[CHIP]  = 0000000000000000 	high:64 low:0
addr_dec_mask[BK]    = 000000000000e100 	high:16 low:8
addr_dec_mask[ROW]   = 000000000fff0000 	high:28 low:16
addr_dec_mask[COL]   = 0000000000001eff 	high:13 low:0
addr_dec_mask[BURST] = 000000000000003f 	high:6 low:0
sub_partition_id_mask = 0000000000000100
GPGPU-Sim uArch: clock freqs: 700000000.000000:700000000.000000:700000000.000000:924000000.000000
GPGPU-Sim uArch: clock periods: 0.00000000142857142857:0.00000000142857142857:0.00000000142857142857:0.00000000108225108225
*** Initializing Memory Statistics ***
GPGPU-Sim uArch: interconnect node map (shaderID+MemID to icntID)
GPGPU-Sim uArch: Memory nodes ID start from index: 15
GPGPU-Sim uArch:    0   1   2   3   4
GPGPU-Sim uArch:    5   6   7   8   9
GPGPU-Sim uArch:   10  11  12  13  14
GPGPU-Sim uArch:   15  16  17  18  19
GPGPU-Sim uArch:   20  21  22  23  24
GPGPU-Sim uArch:   25  26
GPGPU-Sim uArch: interconnect node reverse map (icntID to shaderID+MemID)
GPGPU-Sim uArch: Memory nodes start from ID: 15
GPGPU-Sim uArch:    0   1   2   3   4
GPGPU-Sim uArch:    5   6   7   8   9
GPGPU-Sim uArch:   10  11  12  13  14
GPGPU-Sim uArch:   15  16  17  18  19
GPGPU-Sim uArch:   20  21  22  23  24
GPGPU-Sim uArch:   25  26
7c3d5ae41cea1e926c25170af925835d  /home/kishore/project_source/gpu_class_proj/gpgpusim-benchmarks-master/bin/release/LPS
GPGPU-Sim uArch: performance model initialization complete.
GPGPU-Sim PTX: __cudaRegisterFatBinary, fat_cubin_handle = 1, filename=laplace3d.cu
self exe links to: /home/kishore/project_source/gpu_class_proj/gpgpusim-benchmarks-master/bin/release/LPS
Running md5sum using "md5sum /home/kishore/project_source/gpu_class_proj/gpgpusim-benchmarks-master/bin/release/LPS "
Running cuobjdump using "$CUDA_INSTALL_PATH/bin/cuobjdump -ptx -elf -sass /home/kishore/project_source/gpu_class_proj/gpgpusim-benchmarks-master/bin/release/LPS > _cuobjdump_complete_output_jy8UmY"
Parsing file _cuobjdump_complete_output_jy8UmY
######### cuobjdump parser ########
## Adding new section PTX
Adding ptx filename: _cuobjdump_1.ptx
Adding arch: sm_10
Adding identifier: laplace3d.cu
## Adding new section ELF
Adding arch: sm_10
Adding identifier: laplace3d.cu
## Adding new section ELF
Adding arch: sm_20
Adding identifier: laplace3d.cu
## Adding new section PTX
Adding ptx filename: _cuobjdump_2.ptx
Adding arch: sm_20
Adding identifier: laplace3d.cu
Done parsing!!!
GPGPU-Sim PTX: __cudaRegisterFunction _Z13GPU_laplace3diiiiPfS_ : hostFun 0x0x403bc0, fat_cubin_handle = 1
GPGPU-Sim PTX: allocating shared region for "__cuda___cuda_local_var_34196_33_non_const_u132" from 0x0 to 0x990 (shared memory space)
GPGPU-Sim PTX: instruction assembly for function '_Z13GPU_laplace3diiiiPfS_'...   done.
GPGPU-Sim PTX: finding reconvergence points for '_Z13GPU_laplace3diiiiPfS_'...
GPGPU-Sim PTX: Finding dominators for '_Z13GPU_laplace3diiiiPfS_'...
GPGPU-Sim PTX: Finding immediate dominators for '_Z13GPU_laplace3diiiiPfS_'...
GPGPU-Sim PTX: Finding postdominators for '_Z13GPU_laplace3diiiiPfS_'...
GPGPU-Sim PTX: Finding immediate postdominators for '_Z13GPU_laplace3diiiiPfS_'...
GPGPU-Sim PTX: pre-decoding instructions for '_Z13GPU_laplace3diiiiPfS_'...
GPGPU-Sim PTX: reconvergence points for _Z13GPU_laplace3diiiiPfS_...
GPGPU-Sim PTX:  1 (potential) branch divergence @  PC=0x060 (_1.ptx:82) @!%p1 bra $Lt_0_14338;
GPGPU-Sim PTX:    immediate post dominator      @  PC=0x230 (_1.ptx:154) add.s32 %r57, %r37, %r12;
GPGPU-Sim PTX:  2 (potential) branch divergence @  PC=0x080 (_1.ptx:86) @%p2 bra $Lt_0_14850;
GPGPU-Sim PTX:    immediate post dominator      @  PC=0x120 (_1.ptx:113) add.s32 %r30, %r16, 1;
GPGPU-Sim PTX:  3 (potential) branch divergence @  PC=0x0a0 (_1.ptx:92) bra.uni $Lt_0_14594;
GPGPU-Sim PTX:    immediate post dominator      @  PC=0x120 (_1.ptx:113) add.s32 %r30, %r16, 1;
GPGPU-Sim PTX:  4 (potential) branch divergence @  PC=0x200 (_1.ptx:145) bra.uni $Lt_0_14082;
GPGPU-Sim PTX:    immediate post dominator      @  PC=0x230 (_1.ptx:154) add.s32 %r57, %r37, %r12;
GPGPU-Sim PTX:  5 (potential) branch divergence @  PC=0x290 (_1.ptx:166) @%p5 bra $Lt_0_15106;
GPGPU-Sim PTX:    immediate post dominator      @  PC=0x308 (_1.ptx:183) mov.u64 %rd1, __cuda___cuda_local_var_34196_33_non_const_u132;
GPGPU-Sim PTX:  6 (potential) branch divergence @  PC=0x320 (_1.ptx:186) @!%p6 bra $Lt_0_15618;
GPGPU-Sim PTX:    immediate post dominator      @  PC=0x380 (_1.ptx:200) ld.param.s32 %r73, [__cudaparm__Z13GPU_laplace3diiiiPfS__NZ];
GPGPU-Sim PTX:  7 (potential) branch divergence @  PC=0x398 (_1.ptx:203) @%p7 bra $Lt_0_16130;
GPGPU-Sim PTX:    immediate post dominator      @  PC=0x6d8 (_1.ptx:335) exit;
GPGPU-Sim PTX:  8 (potential) branch divergence @  PC=0x408 (_1.ptx:219) @%p8 bra $Lt_0_17410;
GPGPU-Sim PTX:    immediate post dominator      @  PC=0x4a0 (_1.ptx:245) @!%p6 bra $Lt_0_18434;
GPGPU-Sim PTX:  9 (potential) branch divergence @  PC=0x468 (_1.ptx:235) @%p9 bra $Lt_0_17410;
GPGPU-Sim PTX:    immediate post dominator      @  PC=0x4a0 (_1.ptx:245) @!%p6 bra $Lt_0_18434;
GPGPU-Sim PTX: 10 (potential) branch divergence @  PC=0x4a0 (_1.ptx:245) @!%p6 bra $Lt_0_18434;
GPGPU-Sim PTX:    immediate post dominator      @  PC=0x548 (_1.ptx:273) bar.sync 0;
GPGPU-Sim PTX: 11 (potential) branch divergence @  PC=0x510 (_1.ptx:262) @%p10 bra $Lt_0_18434;
GPGPU-Sim PTX:    immediate post dominator      @  PC=0x548 (_1.ptx:273) bar.sync 0;
GPGPU-Sim PTX: 12 (potential) branch divergence @  PC=0x560 (_1.ptx:276) @%p11 bra $Lt_0_18946;
GPGPU-Sim PTX:    immediate post dominator      @  PC=0x6b8 (_1.ptx:329) bar.sync 0;
GPGPU-Sim PTX: 13 (potential) branch divergence @  PC=0x578 (_1.ptx:280) @%p12 bra $Lt_0_20738;
GPGPU-Sim PTX:    immediate post dominator      @  PC=0x688 (_1.ptx:321) ld.param.u64 %rd35, [__cudaparm__Z13GPU_laplace3diiiiPfS__d_u2];
GPGPU-Sim PTX: 14 (potential) branch divergence @  PC=0x588 (_1.ptx:282) @%p13 bra $Lt_0_20738;
GPGPU-Sim PTX:    immediate post dominator      @  PC=0x688 (_1.ptx:321) ld.param.u64 %rd35, [__cudaparm__Z13GPU_laplace3diiiiPfS__d_u2];
GPGPU-Sim PTX: 15 (potential) branch divergence @  PC=0x5a0 (_1.ptx:285) @%p14 bra $Lt_0_20738;
GPGPU-Sim PTX:    immediate post dominator      @  PC=0x688 (_1.ptx:321) ld.param.u64 %rd35, [__cudaparm__Z13GPU_laplace3diiiiPfS__d_u2];
GPGPU-Sim PTX: 16 (potential) branch divergence @  PC=0x5b0 (_1.ptx:287) @%p15 bra $Lt_0_20738;
GPGPU-Sim PTX:    immediate post dominator      @  PC=0x688 (_1.ptx:321) ld.param.u64 %rd35, [__cudaparm__Z13GPU_laplace3diiiiPfS__d_u2];
GPGPU-Sim PTX: 17 (potential) branch divergence @  PC=0x5c8 (_1.ptx:290) @%p16 bra $Lt_0_20738;
GPGPU-Sim PTX:    immediate post dominator      @  PC=0x688 (_1.ptx:321) ld.param.u64 %rd35, [__cudaparm__Z13GPU_laplace3diiiiPfS__d_u2];
GPGPU-Sim PTX: 18 (potential) branch divergence @  PC=0x5d8 (_1.ptx:292) @%p17 bra $L_0_12546;
GPGPU-Sim PTX:    immediate post dominator      @  PC=0x688 (_1.ptx:321) ld.param.u64 %rd35, [__cudaparm__Z13GPU_laplace3diiiiPfS__d_u2];
GPGPU-Sim PTX: 19 (potential) branch divergence @  PC=0x600 (_1.ptx:300) bra.uni $L_0_12290;
GPGPU-Sim PTX:    immediate post dominator      @  PC=0x688 (_1.ptx:321) ld.param.u64 %rd35, [__cudaparm__Z13GPU_laplace3diiiiPfS__d_u2];
GPGPU-Sim PTX: 20 (potential) branch divergence @  PC=0x6d0 (_1.ptx:332) @%p18 bra $Lt_0_16642;
GPGPU-Sim PTX:    immediate post dominator      @  PC=0x6d8 (_1.ptx:335) exit;
GPGPU-Sim PTX: ... end of reconvergence points for _Z13GPU_laplace3diiiiPfS_
GPGPU-Sim PTX: ... done pre-decoding instructions for '_Z13GPU_laplace3diiiiPfS_'.
GPGPU-Sim PTX: finished parsing EMBEDDED .ptx file _1.ptx
Adding _cuobjdump_2.ptx with cubin handle 1
GPGPU-Sim PTX: extracting embedded .ptx to temporary file "_ptx_p78DHJ"
Running: cat _ptx_p78DHJ | sed 's/.version 1.5/.version 1.4/' | sed 's/, texmode_independent//' | sed 's/\(\.extern \.const\[1\] .b8 \w\+\)\[\]/\1\[1\]/' | sed 's/const\[.\]/const\[0\]/g' > _ptx2_1cho2u
GPGPU-Sim PTX: generating ptxinfo using "$CUDA_INSTALL_PATH/bin/ptxas --gpu-name=sm_20 -v _ptx2_1cho2u --output-file  /dev/null 2> _ptx_p78DHJinfo"
GPGPU-Sim PTX: Kernel '_Z13GPU_laplace3diiiiPfS_' : regs=17, lmem=0, smem=2448, cmem=64
GPGPU-Sim PTX: removing ptxinfo using "rm -f _ptx_p78DHJ _ptx2_1cho2u _ptx_p78DHJinfo"
GPGPU-Sim PTX: loading globals with explicit initializers... 
GPGPU-Sim PTX: finished loading globals (0 bytes total).
GPGPU-Sim PTX: loading constants with explicit initializers...  done.

Grid dimensions: 100 x 100 x 100
GPGPU-Sim PTX: cudaMallocPitch (width = 400)
GPGPU-Sim PTX: cudaMallocPitch (width = 400)
GPGPU-Sim: synchronize waiting for inactive GPU simulation
GPGPU-Sim API: Stream Manager State
GPGPU-Sim: detected inactive GPU simulation thread

Copy u1 to device: 303.139008 (ms) 

 dimGrid  = 4 25 1 
 dimBlock = 32 4 1 
GPGPU-Sim: synchronize waiting for inactive GPU simulation
GPGPU-Sim API: Stream Manager State
GPGPU-Sim: detected inactive GPU simulation thread

GPGPU-Sim PTX: cudaLaunch for 0x0x403bc0 (mode=performance simulation) on stream 0
GPGPU-Sim PTX: pushing kernel '_Z13GPU_laplace3diiiiPfS_' to stream 0, gridDim= (4,25,1) blockDim = (32,4,1) 
kernel '_Z13GPU_laplace3diiiiPfS_' transfer to GPU hardware scheduler
GPGPU-Sim uArch: Shader 1 bind to kernel 1 '_Z13GPU_laplace3diiiiPfS_'
GPGPU-Sim uArch: CTA/core = 8, limited by: cta_limit
GPGPU-Sim uArch: core:  1, cta: 0 initialized @(1,0)
GPGPU-Sim uArch: Shader 2 bind to kernel 1 '_Z13GPU_laplace3diiiiPfS_'
GPGPU-Sim uArch: core:  2, cta: 0 initialized @(1,0)
GPGPU-Sim uArch: Shader 3 bind to kernel 1 '_Z13GPU_laplace3diiiiPfS_'
GPGPU-Sim uArch: core:  3, cta: 0 initialized @(1,0)
GPGPU-Sim uArch: Shader 4 bind to kernel 1 '_Z13GPU_laplace3diiiiPfS_'
GPGPU-Sim uArch: core:  4, cta: 0 initialized @(1,0)
GPGPU-Sim uArch: Shader 5 bind to kernel 1 '_Z13GPU_laplace3diiiiPfS_'
GPGPU-Sim uArch: core:  5, cta: 0 initialized @(1,0)
GPGPU-Sim uArch: Shader 6 bind to kernel 1 '_Z13GPU_laplace3diiiiPfS_'
GPGPU-Sim uArch: core:  6, cta: 0 initialized @(1,0)
GPGPU-Sim uArch: Shader 7 bind to kernel 1 '_Z13GPU_laplace3diiiiPfS_'
GPGPU-Sim uArch: core:  7, cta: 0 initialized @(1,0)
GPGPU-Sim uArch: Shader 8 bind to kernel 1 '_Z13GPU_laplace3diiiiPfS_'
GPGPU-Sim uArch: core:  8, cta: 0 initialized @(1,0)
GPGPU-Sim uArch: Shader 9 bind to kernel 1 '_Z13GPU_laplace3diiiiPfS_'
GPGPU-Sim uArch: core:  9, cta: 0 initialized @(1,0)
GPGPU-Sim uArch: Shader 10 bind to kernel 1 '_Z13GPU_laplace3diiiiPfS_'
GPGPU-Sim uArch: core: 10, cta: 0 initialized @(1,0)
GPGPU-Sim uArch: Shader 11 bind to kernel 1 '_Z13GPU_laplace3diiiiPfS_'
GPGPU-Sim uArch: core: 11, cta: 0 initialized @(1,0)
GPGPU-Sim uArch: Shader 12 bind to kernel 1 '_Z13GPU_laplace3diiiiPfS_'
GPGPU-Sim uArch: core: 12, cta: 0 initialized @(1,0)
GPGPU-Sim uArch: Shader 13 bind to kernel 1 '_Z13GPU_laplace3diiiiPfS_'
GPGPU-Sim uArch: core: 13, cta: 0 initialized @(1,0)
GPGPU-Sim uArch: Shader 14 bind to kernel 1 '_Z13GPU_laplace3diiiiPfS_'
GPGPU-Sim uArch: core: 14, cta: 0 initialized @(1,0)
GPGPU-Sim uArch: Shader 0 bind to kernel 1 '_Z13GPU_laplace3diiiiPfS_'
GPGPU-Sim uArch: core:  0, cta: 0 initialized @(1,0)
GPGPU-Sim uArch: core:  1, cta: 1 initialized @(2,0)
GPGPU-Sim uArch: core:  2, cta: 1 initialized @(2,0)
GPGPU-Sim uArch: core:  3, cta: 1 initialized @(2,0)
GPGPU-Sim uArch: core:  4, cta: 1 initialized @(2,0)
GPGPU-Sim uArch: core:  5, cta: 1 initialized @(2,0)
GPGPU-Sim uArch: core:  6, cta: 1 initialized @(2,0)
GPGPU-Sim uArch: core:  7, cta: 1 initialized @(2,0)
GPGPU-Sim uArch: core:  8, cta: 1 initialized @(2,0)
GPGPU-Sim uArch: core:  9, cta: 1 initialized @(2,0)
GPGPU-Sim uArch: core: 10, cta: 1 initialized @(2,0)
GPGPU-Sim uArch: core: 11, cta: 1 initialized @(2,0)
GPGPU-Sim uArch: core: 12, cta: 1 initialized @(2,0)
GPGPU-Sim uArch: core: 13, cta: 1 initialized @(2,0)
GPGPU-Sim uArch: core: 14, cta: 1 initialized @(2,0)
GPGPU-Sim uArch: core:  0, cta: 1 initialized @(2,0)
GPGPU-Sim uArch: core:  1, cta: 2 initialized @(3,0)
GPGPU-Sim uArch: core:  2, cta: 2 initialized @(3,0)
GPGPU-Sim uArch: core:  3, cta: 2 initialized @(3,0)
GPGPU-Sim uArch: core:  4, cta: 2 initialized @(3,0)
GPGPU-Sim uArch: core:  5, cta: 2 initialized @(3,0)
GPGPU-Sim uArch: core:  6, cta: 2 initialized @(3,0)
GPGPU-Sim uArch: core:  7, cta: 2 initialized @(3,0)
GPGPU-Sim uArch: core:  8, cta: 2 initialized @(3,0)
GPGPU-Sim uArch: core:  9, cta: 2 initialized @(3,0)
GPGPU-Sim uArch: core: 10, cta: 2 initialized @(3,0)
GPGPU-Sim uArch: core: 11, cta: 2 initialized @(3,0)
GPGPU-Sim uArch: core: 12, cta: 2 initialized @(3,0)
GPGPU-Sim uArch: core: 13, cta: 2 initialized @(3,0)
GPGPU-Sim uArch: core: 14, cta: 2 initialized @(3,0)
GPGPU-Sim uArch: core:  0, cta: 2 initialized @(3,0)
GPGPU-Sim uArch: core:  1, cta: 3 initialized @(4,0)
GPGPU-Sim uArch: core:  2, cta: 3 initialized @(4,0)
GPGPU-Sim uArch: core:  3, cta: 3 initialized @(4,0)
GPGPU-Sim uArch: core:  4, cta: 3 initialized @(4,0)
GPGPU-Sim uArch: core:  5, cta: 3 initialized @(4,0)
GPGPU-Sim uArch: core:  6, cta: 3 initialized @(4,0)
GPGPU-Sim uArch: core:  7, cta: 3 initialized @(4,0)
GPGPU-Sim uArch: core:  8, cta: 3 initialized @(4,0)
GPGPU-Sim uArch: core:  9, cta: 3 initialized @(4,0)
GPGPU-Sim uArch: core: 10, cta: 3 initialized @(4,0)
GPGPU-Sim uArch: core: 11, cta: 3 initialized @(4,0)
GPGPU-Sim uArch: core: 12, cta: 3 initialized @(4,0)
GPGPU-Sim uArch: core: 13, cta: 3 initialized @(4,0)
GPGPU-Sim uArch: core: 14, cta: 3 initialized @(4,0)
GPGPU-Sim uArch: core:  0, cta: 3 initialized @(4,0)
GPGPU-Sim uArch: core:  1, cta: 4 initialized @(5,0)
GPGPU-Sim uArch: core:  2, cta: 4 initialized @(5,0)
GPGPU-Sim uArch: core:  3, cta: 4 initialized @(5,0)
GPGPU-Sim uArch: core:  4, cta: 4 initialized @(5,0)
GPGPU-Sim uArch: core:  5, cta: 4 initialized @(5,0)
GPGPU-Sim uArch: core:  6, cta: 4 initialized @(5,0)
GPGPU-Sim uArch: core:  7, cta: 4 initialized @(5,0)
GPGPU-Sim uArch: core:  8, cta: 4 initialized @(5,0)
GPGPU-Sim uArch: core:  9, cta: 4 initialized @(5,0)
GPGPU-Sim uArch: core: 10, cta: 4 initialized @(5,0)
GPGPU-Sim uArch: core: 11, cta: 4 initialized @(5,0)
GPGPU-Sim uArch: core: 12, cta: 4 initialized @(5,0)
GPGPU-Sim uArch: core: 13, cta: 4 initialized @(5,0)
GPGPU-Sim uArch: core: 14, cta: 4 initialized @(5,0)
GPGPU-Sim uArch: core:  0, cta: 4 initialized @(5,0)
GPGPU-Sim uArch: core:  1, cta: 5 initialized @(6,0)
GPGPU-Sim uArch: core:  2, cta: 5 initialized @(6,0)
GPGPU-Sim uArch: core:  3, cta: 5 initialized @(6,0)
GPGPU-Sim uArch: core:  4, cta: 5 initialized @(6,0)
GPGPU-Sim uArch: core:  5, cta: 5 initialized @(6,0)
GPGPU-Sim uArch: core:  6, cta: 5 initialized @(6,0)
GPGPU-Sim uArch: core:  7, cta: 5 initialized @(6,0)
GPGPU-Sim uArch: core:  8, cta: 5 initialized @(6,0)
GPGPU-Sim uArch: core:  9, cta: 5 initialized @(6,0)
GPGPU-Sim uArch: core: 10, cta: 5 initialized @(6,0)
GPGPU-Sim uArch: core: 11, cta: 5 initialized @(6,0)
GPGPU-Sim uArch: core: 12, cta: 5 initialized @(6,0)
GPGPU-Sim uArch: core: 13, cta: 5 initialized @(6,0)
GPGPU-Sim uArch: core: 14, cta: 5 initialized @(6,0)
GPGPU-Sim uArch: core:  0, cta: 5 initialized @(6,0)
GPGPU-Sim uArch: core:  1, cta: 6 initialized @(7,0)
GPGPU-Sim uArch: core:  2, cta: 6 initialized @(7,0)
GPGPU-Sim uArch: core:  3, cta: 6 initialized @(7,0)
GPGPU-Sim uArch: core:  4, cta: 6 initialized @(7,0)
GPGPU-Sim uArch: core:  5, cta: 6 initialized @(7,0)
GPGPU-Sim uArch: core:  6, cta: 6 initialized @(7,0)
GPGPU-Sim uArch: core:  7, cta: 6 initialized @(7,0)
GPGPU-Sim uArch: core:  8, cta: 6 initialized @(7,0)
GPGPU-Sim uArch: core:  9, cta: 6 initialized @(7,0)
GPGPU-Sim uArch: core: 10, cta: 6 initialized @(7,0)
GPGPU-Sim uArch: cycles simulated: 500  inst.: 67576 (ipc=135.2) sim_rate=22525 (inst/sec) elapsed = 0:0:00:03 / Fri May 15 10:29:40 2015
GPGPU-Sim PTX: 100000 instructions simulated : ctaid=(0,16,0) tid=(31,3,0)
GPGPU-Sim PTX: 200000 instructions simulated : ctaid=(0,1,0) tid=(7,3,0)
GPGPU-Sim uArch: cycles simulated: 1000  inst.: 255232 (ipc=255.2) sim_rate=51046 (inst/sec) elapsed = 0:0:00:05 / Fri May 15 10:29:42 2015
GPGPU-Sim PTX: 300000 instructions simulated : ctaid=(2,13,0) tid=(11,0,0)
GPGPU-Sim PTX: 400000 instructions simulated : ctaid=(3,5,0) tid=(3,3,0)
GPGPU-Sim uArch: cycles simulated: 1500  inst.: 445608 (ipc=297.1) sim_rate=55701 (inst/sec) elapsed = 0:0:00:08 / Fri May 15 10:29:45 2015
GPGPU-Sim PTX: 500000 instructions simulated : ctaid=(0,19,0) tid=(19,1,0)
GPGPU-Sim PTX: 600000 instructions simulated : ctaid=(1,15,0) tid=(27,2,0)
GPGPU-Sim uArch: cycles simulated: 2000  inst.: 636374 (ipc=318.2) sim_rate=57852 (inst/sec) elapsed = 0:0:00:11 / Fri May 15 10:29:48 2015
GPGPU-Sim PTX: 700000 instructions simulated : ctaid=(0,23,0) tid=(9,0,0)
GPGPU-Sim PTX: 800000 instructions simulated : ctaid=(2,1,0) tid=(7,1,0)
GPGPU-Sim uArch: cycles simulated: 2500  inst.: 834840 (ipc=333.9) sim_rate=59631 (inst/sec) elapsed = 0:0:00:14 / Fri May 15 10:29:51 2015
GPGPU-Sim PTX: 900000 instructions simulated : ctaid=(2,3,0) tid=(1,1,0)
GPGPU-Sim PTX: 1000000 instructions simulated : ctaid=(1,4,0) tid=(19,0,0)
GPGPU-Sim uArch: cycles simulated: 3000  inst.: 1006508 (ipc=335.5) sim_rate=59206 (inst/sec) elapsed = 0:0:00:17 / Fri May 15 10:29:54 2015
GPGPU-Sim PTX: 1100000 instructions simulated : ctaid=(2,5,0) tid=(31,2,0)
GPGPU-Sim PTX: 1200000 instructions simulated : ctaid=(2,11,0) tid=(14,0,0)
GPGPU-Sim uArch: cycles simulated: 3500  inst.: 1160740 (ipc=331.6) sim_rate=58037 (inst/sec) elapsed = 0:0:00:20 / Fri May 15 10:29:57 2015
GPGPU-Sim PTX: 1300000 instructions simulated : ctaid=(2,7,0) tid=(6,0,0)
GPGPU-Sim uArch: cycles simulated: 4000  inst.: 1312417 (ipc=328.1) sim_rate=57061 (inst/sec) elapsed = 0:0:00:23 / Fri May 15 10:30:00 2015
GPGPU-Sim PTX: 1400000 instructions simulated : ctaid=(1,12,0) tid=(0,3,0)
GPGPU-Sim PTX: 1500000 instructions simulated : ctaid=(3,23,0) tid=(1,3,0)
GPGPU-Sim uArch: cycles simulated: 4500  inst.: 1442469 (ipc=320.5) sim_rate=55479 (inst/sec) elapsed = 0:0:00:26 / Fri May 15 10:30:03 2015
GPGPU-Sim PTX: 1600000 instructions simulated : ctaid=(0,14,0) tid=(5,3,0)
GPGPU-Sim PTX: 1700000 instructions simulated : ctaid=(0,14,0) tid=(20,3,0)
GPGPU-Sim uArch: cycles simulated: 5000  inst.: 1612090 (ipc=322.4) sim_rate=57574 (inst/sec) elapsed = 0:0:00:28 / Fri May 15 10:30:05 2015
GPGPU-Sim PTX: 1800000 instructions simulated : ctaid=(1,7,0) tid=(26,3,0)
GPGPU-Sim uArch: cycles simulated: 5500  inst.: 1753884 (ipc=318.9) sim_rate=58462 (inst/sec) elapsed = 0:0:00:30 / Fri May 15 10:30:07 2015
GPGPU-Sim PTX: 1900000 instructions simulated : ctaid=(0,22,0) tid=(4,0,0)
GPGPU-Sim PTX: 2000000 instructions simulated : ctaid=(1,13,0) tid=(8,0,0)
GPGPU-Sim uArch: cycles simulated: 6000  inst.: 1890488 (ipc=315.1) sim_rate=59077 (inst/sec) elapsed = 0:0:00:32 / Fri May 15 10:30:09 2015
GPGPU-Sim PTX: 2100000 instructions simulated : ctaid=(1,10,0) tid=(26,3,0)
GPGPU-Sim PTX: 2200000 instructions simulated : ctaid=(2,18,0) tid=(17,0,0)
GPGPU-Sim uArch: cycles simulated: 6500  inst.: 2041093 (ipc=314.0) sim_rate=60032 (inst/sec) elapsed = 0:0:00:34 / Fri May 15 10:30:11 2015
GPGPU-Sim PTX: 2300000 instructions simulated : ctaid=(1,19,0) tid=(6,2,0)
GPGPU-Sim PTX: 2400000 instructions simulated : ctaid=(0,22,0) tid=(0,0,0)
GPGPU-Sim uArch: cycles simulated: 7000  inst.: 2221130 (ipc=317.3) sim_rate=61698 (inst/sec) elapsed = 0:0:00:36 / Fri May 15 10:30:13 2015
GPGPU-Sim PTX: 2500000 instructions simulated : ctaid=(0,21,0) tid=(26,0,0)
GPGPU-Sim uArch: cycles simulated: 7500  inst.: 2373393 (ipc=316.5) sim_rate=62457 (inst/sec) elapsed = 0:0:00:38 / Fri May 15 10:30:15 2015
GPGPU-Sim PTX: 2600000 instructions simulated : ctaid=(1,15,0) tid=(9,1,0)
GPGPU-Sim PTX: 2700000 instructions simulated : ctaid=(1,24,0) tid=(6,2,0)
GPGPU-Sim uArch: cycles simulated: 8000  inst.: 2542539 (ipc=317.8) sim_rate=63563 (inst/sec) elapsed = 0:0:00:40 / Fri May 15 10:30:17 2015
GPGPU-Sim PTX: 2800000 instructions simulated : ctaid=(1,11,0) tid=(4,3,0)
GPGPU-Sim PTX: 2900000 instructions simulated : ctaid=(1,10,0) tid=(18,3,0)
GPGPU-Sim uArch: cycles simulated: 8500  inst.: 2702079 (ipc=317.9) sim_rate=64335 (inst/sec) elapsed = 0:0:00:42 / Fri May 15 10:30:19 2015
GPGPU-Sim PTX: 3000000 instructions simulated : ctaid=(0,12,0) tid=(27,0,0)
GPGPU-Sim PTX: 3100000 instructions simulated : ctaid=(1,18,0) tid=(8,1,0)
GPGPU-Sim uArch: cycles simulated: 9000  inst.: 2863286 (ipc=318.1) sim_rate=65074 (inst/sec) elapsed = 0:0:00:44 / Fri May 15 10:30:21 2015
GPGPU-Sim PTX: 3200000 instructions simulated : ctaid=(1,8,0) tid=(29,2,0)
GPGPU-Sim PTX: 3300000 instructions simulated : ctaid=(2,20,0) tid=(10,1,0)
GPGPU-Sim uArch: cycles simulated: 9500  inst.: 3035615 (ipc=319.5) sim_rate=65991 (inst/sec) elapsed = 0:0:00:46 / Fri May 15 10:30:23 2015
GPGPU-Sim PTX: 3400000 instructions simulated : ctaid=(0,12,0) tid=(19,0,0)
GPGPU-Sim PTX: 3500000 instructions simulated : ctaid=(0,8,0) tid=(30,0,0)
GPGPU-Sim uArch: cycles simulated: 10000  inst.: 3199434 (ipc=319.9) sim_rate=66654 (inst/sec) elapsed = 0:0:00:48 / Fri May 15 10:30:25 2015
GPGPU-Sim PTX: 3600000 instructions simulated : ctaid=(1,11,0) tid=(26,1,0)
GPGPU-Sim uArch: cycles simulated: 10500  inst.: 3347932 (ipc=318.9) sim_rate=66958 (inst/sec) elapsed = 0:0:00:50 / Fri May 15 10:30:27 2015
GPGPU-Sim PTX: 3700000 instructions simulated : ctaid=(1,17,0) tid=(28,1,0)
GPGPU-Sim PTX: 3800000 instructions simulated : ctaid=(2,13,0) tid=(27,2,0)
GPGPU-Sim uArch: cycles simulated: 11000  inst.: 3516395 (ipc=319.7) sim_rate=67622 (inst/sec) elapsed = 0:0:00:52 / Fri May 15 10:30:29 2015
GPGPU-Sim PTX: 3900000 instructions simulated : ctaid=(0,14,0) tid=(31,1,0)
GPGPU-Sim PTX: 4000000 instructions simulated : ctaid=(2,14,0) tid=(19,0,0)
GPGPU-Sim uArch: cycles simulated: 11500  inst.: 3685531 (ipc=320.5) sim_rate=67009 (inst/sec) elapsed = 0:0:00:55 / Fri May 15 10:30:32 2015
GPGPU-Sim PTX: 4100000 instructions simulated : ctaid=(1,12,0) tid=(3,3,0)
GPGPU-Sim PTX: 4200000 instructions simulated : ctaid=(0,24,0) tid=(23,2,0)
GPGPU-Sim uArch: cycles simulated: 12000  inst.: 3846409 (ipc=320.5) sim_rate=67480 (inst/sec) elapsed = 0:0:00:57 / Fri May 15 10:30:34 2015
GPGPU-Sim PTX: 4300000 instructions simulated : ctaid=(0,13,0) tid=(25,1,0)
GPGPU-Sim PTX: 4400000 instructions simulated : ctaid=(1,17,0) tid=(14,2,0)
GPGPU-Sim uArch: cycles simulated: 12500  inst.: 4015485 (ipc=321.2) sim_rate=68059 (inst/sec) elapsed = 0:0:00:59 / Fri May 15 10:30:36 2015
GPGPU-Sim PTX: 4500000 instructions simulated : ctaid=(2,5,0) tid=(11,0,0)
GPGPU-Sim PTX: 4600000 instructions simulated : ctaid=(0,18,0) tid=(31,2,0)
GPGPU-Sim uArch: cycles simulated: 13000  inst.: 4181773 (ipc=321.7) sim_rate=68553 (inst/sec) elapsed = 0:0:01:01 / Fri May 15 10:30:38 2015
GPGPU-Sim PTX: 4700000 instructions simulated : ctaid=(2,23,0) tid=(27,0,0)
GPGPU-Sim PTX: 4800000 instructions simulated : ctaid=(1,19,0) tid=(15,0,0)
GPGPU-Sim uArch: cycles simulated: 13500  inst.: 4347707 (ipc=322.1) sim_rate=69011 (inst/sec) elapsed = 0:0:01:03 / Fri May 15 10:30:40 2015
GPGPU-Sim PTX: 4900000 instructions simulated : ctaid=(2,23,0) tid=(7,1,0)
GPGPU-Sim uArch: cycles simulated: 14000  inst.: 4505234 (ipc=321.8) sim_rate=69311 (inst/sec) elapsed = 0:0:01:05 / Fri May 15 10:30:42 2015
GPGPU-Sim PTX: 5000000 instructions simulated : ctaid=(2,8,0) tid=(22,3,0)
GPGPU-Sim PTX: 5100000 instructions simulated : ctaid=(0,16,0) tid=(30,1,0)
GPGPU-Sim uArch: cycles simulated: 14500  inst.: 4670875 (ipc=322.1) sim_rate=69714 (inst/sec) elapsed = 0:0:01:07 / Fri May 15 10:30:44 2015
GPGPU-Sim PTX: 5200000 instructions simulated : ctaid=(0,20,0) tid=(12,3,0)
GPGPU-Sim PTX: 5300000 instructions simulated : ctaid=(0,9,0) tid=(3,3,0)
GPGPU-Sim uArch: cycles simulated: 15000  inst.: 4833795 (ipc=322.3) sim_rate=70055 (inst/sec) elapsed = 0:0:01:09 / Fri May 15 10:30:46 2015
GPGPU-Sim PTX: 5400000 instructions simulated : ctaid=(1,22,0) tid=(20,0,0)
GPGPU-Sim PTX: 5500000 instructions simulated : ctaid=(1,12,0) tid=(24,1,0)
GPGPU-Sim uArch: cycles simulated: 15500  inst.: 5002361 (ipc=322.7) sim_rate=70455 (inst/sec) elapsed = 0:0:01:11 / Fri May 15 10:30:48 2015
GPGPU-Sim PTX: 5600000 instructions simulated : ctaid=(1,15,0) tid=(7,2,0)
GPGPU-Sim PTX: 5700000 instructions simulated : ctaid=(2,8,0) tid=(5,3,0)
GPGPU-Sim uArch: cycles simulated: 16000  inst.: 5165493 (ipc=322.8) sim_rate=70760 (inst/sec) elapsed = 0:0:01:13 / Fri May 15 10:30:50 2015
GPGPU-Sim PTX: 5800000 instructions simulated : ctaid=(3,19,0) tid=(6,1,0)
GPGPU-Sim PTX: 5900000 instructions simulated : ctaid=(0,10,0) tid=(18,1,0)
GPGPU-Sim uArch: cycles simulated: 16500  inst.: 5330399 (ipc=323.1) sim_rate=71071 (inst/sec) elapsed = 0:0:01:15 / Fri May 15 10:30:52 2015
GPGPU-Sim PTX: 6000000 instructions simulated : ctaid=(2,12,0) tid=(13,1,0)
GPGPU-Sim PTX: 6100000 instructions simulated : ctaid=(3,0,0) tid=(3,0,0)
GPGPU-Sim uArch: cycles simulated: 17000  inst.: 5491261 (ipc=323.0) sim_rate=71315 (inst/sec) elapsed = 0:0:01:17 / Fri May 15 10:30:54 2015
GPGPU-Sim PTX: 6200000 instructions simulated : ctaid=(0,12,0) tid=(8,2,0)
GPGPU-Sim uArch: cycles simulated: 17500  inst.: 5654171 (ipc=323.1) sim_rate=71571 (inst/sec) elapsed = 0:0:01:19 / Fri May 15 10:30:56 2015
GPGPU-Sim PTX: 6300000 instructions simulated : ctaid=(3,21,0) tid=(3,1,0)
GPGPU-Sim PTX: 6400000 instructions simulated : ctaid=(2,9,0) tid=(3,3,0)
GPGPU-Sim uArch: cycles simulated: 18000  inst.: 5822889 (ipc=323.5) sim_rate=71887 (inst/sec) elapsed = 0:0:01:21 / Fri May 15 10:30:58 2015
GPGPU-Sim PTX: 6500000 instructions simulated : ctaid=(1,22,0) tid=(1,0,0)
GPGPU-Sim PTX: 6600000 instructions simulated : ctaid=(1,14,0) tid=(15,1,0)
GPGPU-Sim uArch: cycles simulated: 18500  inst.: 5986201 (ipc=323.6) sim_rate=72122 (inst/sec) elapsed = 0:0:01:23 / Fri May 15 10:31:00 2015
GPGPU-Sim PTX: 6700000 instructions simulated : ctaid=(1,1,0) tid=(7,2,0)
GPGPU-Sim PTX: 6800000 instructions simulated : ctaid=(1,20,0) tid=(11,3,0)
GPGPU-Sim uArch: cycles simulated: 19000  inst.: 6153443 (ipc=323.9) sim_rate=71551 (inst/sec) elapsed = 0:0:01:26 / Fri May 15 10:31:03 2015
GPGPU-Sim PTX: 6900000 instructions simulated : ctaid=(1,23,0) tid=(21,0,0)
GPGPU-Sim PTX: 7000000 instructions simulated : ctaid=(3,12,0) tid=(0,3,0)
GPGPU-Sim uArch: cycles simulated: 19500  inst.: 6327494 (ipc=324.5) sim_rate=71903 (inst/sec) elapsed = 0:0:01:28 / Fri May 15 10:31:05 2015
GPGPU-Sim PTX: 7100000 instructions simulated : ctaid=(2,2,0) tid=(20,2,0)
GPGPU-Sim PTX: 7200000 instructions simulated : ctaid=(1,0,0) tid=(16,3,0)
GPGPU-Sim uArch: cycles simulated: 20000  inst.: 6484283 (ipc=324.2) sim_rate=72047 (inst/sec) elapsed = 0:0:01:30 / Fri May 15 10:31:07 2015
GPGPU-Sim PTX: 7300000 instructions simulated : ctaid=(1,1,0) tid=(21,3,0)
GPGPU-Sim PTX: 7400000 instructions simulated : ctaid=(2,14,0) tid=(28,0,0)
GPGPU-Sim uArch: cycles simulated: 20500  inst.: 6652386 (ipc=324.5) sim_rate=72308 (inst/sec) elapsed = 0:0:01:32 / Fri May 15 10:31:09 2015
GPGPU-Sim PTX: 7500000 instructions simulated : ctaid=(1,19,0) tid=(2,3,0)
GPGPU-Sim PTX: 7600000 instructions simulated : ctaid=(0,2,0) tid=(11,1,0)
GPGPU-Sim uArch: cycles simulated: 21000  inst.: 6828055 (ipc=325.1) sim_rate=72638 (inst/sec) elapsed = 0:0:01:34 / Fri May 15 10:31:11 2015
GPGPU-Sim PTX: 7700000 instructions simulated : ctaid=(1,21,0) tid=(25,2,0)
GPGPU-Sim uArch: cycles simulated: 21500  inst.: 6995957 (ipc=325.4) sim_rate=72874 (inst/sec) elapsed = 0:0:01:36 / Fri May 15 10:31:13 2015
GPGPU-Sim PTX: 7800000 instructions simulated : ctaid=(2,4,0) tid=(7,0,0)
GPGPU-Sim PTX: 7900000 instructions simulated : ctaid=(1,15,0) tid=(0,3,0)
GPGPU-Sim uArch: cycles simulated: 22000  inst.: 7164188 (ipc=325.6) sim_rate=73103 (inst/sec) elapsed = 0:0:01:38 / Fri May 15 10:31:15 2015
GPGPU-Sim PTX: 8000000 instructions simulated : ctaid=(1,2,0) tid=(3,2,0)
GPGPU-Sim PTX: 8100000 instructions simulated : ctaid=(1,9,0) tid=(24,2,0)
GPGPU-Sim uArch: cycles simulated: 22500  inst.: 7333933 (ipc=326.0) sim_rate=73339 (inst/sec) elapsed = 0:0:01:40 / Fri May 15 10:31:17 2015
GPGPU-Sim PTX: 8200000 instructions simulated : ctaid=(1,15,0) tid=(29,0,0)
GPGPU-Sim PTX: 8300000 instructions simulated : ctaid=(2,4,0) tid=(19,2,0)
GPGPU-Sim uArch: cycles simulated: 23000  inst.: 7504009 (ipc=326.3) sim_rate=73568 (inst/sec) elapsed = 0:0:01:42 / Fri May 15 10:31:19 2015
GPGPU-Sim PTX: 8400000 instructions simulated : ctaid=(2,23,0) tid=(9,0,0)
GPGPU-Sim PTX: 8500000 instructions simulated : ctaid=(0,20,0) tid=(7,1,0)
GPGPU-Sim uArch: cycles simulated: 23500  inst.: 7668937 (ipc=326.3) sim_rate=73739 (inst/sec) elapsed = 0:0:01:44 / Fri May 15 10:31:21 2015
GPGPU-Sim PTX: 8600000 instructions simulated : ctaid=(0,13,0) tid=(19,3,0)
GPGPU-Sim PTX: 8700000 instructions simulated : ctaid=(2,11,0) tid=(22,1,0)
GPGPU-Sim uArch: cycles simulated: 24000  inst.: 7835830 (ipc=326.5) sim_rate=73922 (inst/sec) elapsed = 0:0:01:46 / Fri May 15 10:31:23 2015
GPGPU-Sim PTX: 8800000 instructions simulated : ctaid=(0,18,0) tid=(12,2,0)
GPGPU-Sim PTX: 8900000 instructions simulated : ctaid=(0,18,0) tid=(18,0,0)
GPGPU-Sim uArch: cycles simulated: 24500  inst.: 8003668 (ipc=326.7) sim_rate=73428 (inst/sec) elapsed = 0:0:01:49 / Fri May 15 10:31:26 2015
GPGPU-Sim PTX: 9000000 instructions simulated : ctaid=(1,19,0) tid=(12,0,0)
GPGPU-Sim PTX: 9100000 instructions simulated : ctaid=(1,1,0) tid=(23,1,0)
GPGPU-Sim uArch: cycles simulated: 25000  inst.: 8167757 (ipc=326.7) sim_rate=73583 (inst/sec) elapsed = 0:0:01:51 / Fri May 15 10:31:28 2015
GPGPU-Sim PTX: 9200000 instructions simulated : ctaid=(1,2,0) tid=(26,1,0)
GPGPU-Sim PTX: 9300000 instructions simulated : ctaid=(2,21,0) tid=(6,0,0)
GPGPU-Sim uArch: cycles simulated: 25500  inst.: 8337701 (ipc=327.0) sim_rate=73784 (inst/sec) elapsed = 0:0:01:53 / Fri May 15 10:31:30 2015
GPGPU-Sim PTX: 9400000 instructions simulated : ctaid=(1,18,0) tid=(17,3,0)
GPGPU-Sim PTX: 9500000 instructions simulated : ctaid=(1,14,0) tid=(4,2,0)
GPGPU-Sim uArch: cycles simulated: 26000  inst.: 8509497 (ipc=327.3) sim_rate=73995 (inst/sec) elapsed = 0:0:01:55 / Fri May 15 10:31:32 2015
GPGPU-Sim PTX: 9600000 instructions simulated : ctaid=(3,17,0) tid=(0,3,0)
GPGPU-Sim uArch: cycles simulated: 26500  inst.: 8681441 (ipc=327.6) sim_rate=74200 (inst/sec) elapsed = 0:0:01:57 / Fri May 15 10:31:34 2015
GPGPU-Sim PTX: 9700000 instructions simulated : ctaid=(0,19,0) tid=(25,1,0)
GPGPU-Sim PTX: 9800000 instructions simulated : ctaid=(2,11,0) tid=(22,0,0)
GPGPU-Sim uArch: cycles simulated: 27000  inst.: 8847029 (ipc=327.7) sim_rate=74344 (inst/sec) elapsed = 0:0:01:59 / Fri May 15 10:31:36 2015
GPGPU-Sim PTX: 9900000 instructions simulated : ctaid=(2,19,0) tid=(25,3,0)
GPGPU-Sim PTX: 10000000 instructions simulated : ctaid=(0,11,0) tid=(24,1,0)
GPGPU-Sim uArch: cycles simulated: 27500  inst.: 9018069 (ipc=327.9) sim_rate=74529 (inst/sec) elapsed = 0:0:02:01 / Fri May 15 10:31:38 2015
GPGPU-Sim PTX: 10100000 instructions simulated : ctaid=(1,17,0) tid=(5,3,0)
GPGPU-Sim PTX: 10200000 instructions simulated : ctaid=(1,19,0) tid=(31,2,0)
GPGPU-Sim uArch: cycles simulated: 28000  inst.: 9185212 (ipc=328.0) sim_rate=74676 (inst/sec) elapsed = 0:0:02:03 / Fri May 15 10:31:40 2015
GPGPU-Sim PTX: 10300000 instructions simulated : ctaid=(1,24,0) tid=(9,0,0)
GPGPU-Sim PTX: 10400000 instructions simulated : ctaid=(3,19,0) tid=(15,0,0)
GPGPU-Sim uArch: cycles simulated: 28500  inst.: 9354380 (ipc=328.2) sim_rate=74835 (inst/sec) elapsed = 0:0:02:05 / Fri May 15 10:31:42 2015
GPGPU-Sim PTX: 10500000 instructions simulated : ctaid=(1,15,0) tid=(28,1,0)
GPGPU-Sim PTX: 10600000 instructions simulated : ctaid=(1,4,0) tid=(31,2,0)
GPGPU-Sim uArch: cycles simulated: 29000  inst.: 9523194 (ipc=328.4) sim_rate=74985 (inst/sec) elapsed = 0:0:02:07 / Fri May 15 10:31:44 2015
GPGPU-Sim PTX: 10700000 instructions simulated : ctaid=(1,22,0) tid=(13,1,0)
GPGPU-Sim PTX: 10800000 instructions simulated : ctaid=(2,16,0) tid=(10,0,0)
GPGPU-Sim uArch: cycles simulated: 29500  inst.: 9694282 (ipc=328.6) sim_rate=75149 (inst/sec) elapsed = 0:0:02:09 / Fri May 15 10:31:46 2015
GPGPU-Sim PTX: 10900000 instructions simulated : ctaid=(0,18,0) tid=(23,0,0)
GPGPU-Sim PTX: 11000000 instructions simulated : ctaid=(1,6,0) tid=(15,0,0)
GPGPU-Sim uArch: cycles simulated: 30000  inst.: 9861247 (ipc=328.7) sim_rate=74706 (inst/sec) elapsed = 0:0:02:12 / Fri May 15 10:31:49 2015
GPGPU-Sim PTX: 11100000 instructions simulated : ctaid=(2,17,0) tid=(8,0,0)
GPGPU-Sim PTX: 11200000 instructions simulated : ctaid=(2,14,0) tid=(2,3,0)
GPGPU-Sim uArch: cycles simulated: 30500  inst.: 10031924 (ipc=328.9) sim_rate=74865 (inst/sec) elapsed = 0:0:02:14 / Fri May 15 10:31:51 2015
GPGPU-Sim PTX: 11300000 instructions simulated : ctaid=(2,7,0) tid=(6,0,0)
GPGPU-Sim PTX: 11400000 instructions simulated : ctaid=(3,24,0) tid=(8,2,0)
GPGPU-Sim uArch: cycles simulated: 31000  inst.: 10195669 (ipc=328.9) sim_rate=74968 (inst/sec) elapsed = 0:0:02:16 / Fri May 15 10:31:53 2015
GPGPU-Sim PTX: 11500000 instructions simulated : ctaid=(2,16,0) tid=(13,1,0)
GPGPU-Sim uArch: cycles simulated: 31500  inst.: 10366877 (ipc=329.1) sim_rate=75122 (inst/sec) elapsed = 0:0:02:18 / Fri May 15 10:31:55 2015
GPGPU-Sim PTX: 11600000 instructions simulated : ctaid=(2,19,0) tid=(24,3,0)
GPGPU-Sim PTX: 11700000 instructions simulated : ctaid=(2,10,0) tid=(6,3,0)
GPGPU-Sim uArch: cycles simulated: 32000  inst.: 10534904 (ipc=329.2) sim_rate=75249 (inst/sec) elapsed = 0:0:02:20 / Fri May 15 10:31:57 2015
GPGPU-Sim PTX: 11800000 instructions simulated : ctaid=(2,0,0) tid=(23,3,0)
GPGPU-Sim PTX: 11900000 instructions simulated : ctaid=(1,6,0) tid=(19,1,0)
GPGPU-Sim uArch: cycles simulated: 32500  inst.: 10709535 (ipc=329.5) sim_rate=75419 (inst/sec) elapsed = 0:0:02:22 / Fri May 15 10:31:59 2015
GPGPU-Sim PTX: 12000000 instructions simulated : ctaid=(2,2,0) tid=(1,3,0)
GPGPU-Sim PTX: 12100000 instructions simulated : ctaid=(2,12,0) tid=(24,0,0)
GPGPU-Sim uArch: cycles simulated: 33000  inst.: 10871933 (ipc=329.5) sim_rate=75499 (inst/sec) elapsed = 0:0:02:24 / Fri May 15 10:32:01 2015
GPGPU-Sim PTX: 12200000 instructions simulated : ctaid=(1,8,0) tid=(0,3,0)
GPGPU-Sim PTX: 12300000 instructions simulated : ctaid=(2,23,0) tid=(27,1,0)
GPGPU-Sim uArch: cycles simulated: 33500  inst.: 11038883 (ipc=329.5) sim_rate=75608 (inst/sec) elapsed = 0:0:02:26 / Fri May 15 10:32:03 2015
GPGPU-Sim PTX: 12400000 instructions simulated : ctaid=(1,17,0) tid=(20,0,0)
GPGPU-Sim PTX: 12500000 instructions simulated : ctaid=(3,13,0) tid=(4,3,0)
GPGPU-Sim uArch: cycles simulated: 34000  inst.: 11210712 (ipc=329.7) sim_rate=75748 (inst/sec) elapsed = 0:0:02:28 / Fri May 15 10:32:05 2015
GPGPU-Sim PTX: 12600000 instructions simulated : ctaid=(2,12,0) tid=(9,1,0)
GPGPU-Sim PTX: 12700000 instructions simulated : ctaid=(2,12,0) tid=(1,2,0)
GPGPU-Sim uArch: cycles simulated: 34500  inst.: 11380736 (ipc=329.9) sim_rate=75871 (inst/sec) elapsed = 0:0:02:30 / Fri May 15 10:32:07 2015
GPGPU-Sim PTX: 12800000 instructions simulated : ctaid=(1,24,0) tid=(9,0,0)
GPGPU-Sim PTX: 12900000 instructions simulated : ctaid=(1,21,0) tid=(18,1,0)
GPGPU-Sim uArch: cycles simulated: 35000  inst.: 11549728 (ipc=330.0) sim_rate=75985 (inst/sec) elapsed = 0:0:02:32 / Fri May 15 10:32:09 2015
GPGPU-Sim PTX: 13000000 instructions simulated : ctaid=(0,7,0) tid=(7,0,0)
GPGPU-Sim PTX: 13100000 instructions simulated : ctaid=(3,6,0) tid=(8,3,0)
GPGPU-Sim uArch: cycles simulated: 35500  inst.: 11725216 (ipc=330.3) sim_rate=76137 (inst/sec) elapsed = 0:0:02:34 / Fri May 15 10:32:11 2015
GPGPU-Sim PTX: 13200000 instructions simulated : ctaid=(0,2,0) tid=(6,3,0)
GPGPU-Sim PTX: 13300000 instructions simulated : ctaid=(2,3,0) tid=(31,0,0)
GPGPU-Sim uArch: cycles simulated: 36000  inst.: 11889527 (ipc=330.3) sim_rate=75729 (inst/sec) elapsed = 0:0:02:37 / Fri May 15 10:32:14 2015
GPGPU-Sim PTX: 13400000 instructions simulated : ctaid=(1,20,0) tid=(0,3,0)
GPGPU-Sim PTX: 13500000 instructions simulated : ctaid=(2,12,0) tid=(22,2,0)
GPGPU-Sim uArch: cycles simulated: 36500  inst.: 12064463 (ipc=330.5) sim_rate=75877 (inst/sec) elapsed = 0:0:02:39 / Fri May 15 10:32:16 2015
GPGPU-Sim PTX: 13600000 instructions simulated : ctaid=(3,3,0) tid=(11,0,0)
GPGPU-Sim uArch: cycles simulated: 37000  inst.: 12229160 (ipc=330.5) sim_rate=75957 (inst/sec) elapsed = 0:0:02:41 / Fri May 15 10:32:18 2015
GPGPU-Sim PTX: 13700000 instructions simulated : ctaid=(2,17,0) tid=(15,0,0)
GPGPU-Sim PTX: 13800000 instructions simulated : ctaid=(2,8,0) tid=(4,1,0)
GPGPU-Sim uArch: cycles simulated: 37500  inst.: 12395159 (ipc=330.5) sim_rate=76043 (inst/sec) elapsed = 0:0:02:43 / Fri May 15 10:32:20 2015
GPGPU-Sim PTX: 13900000 instructions simulated : ctaid=(0,18,0) tid=(5,0,0)
GPGPU-Sim PTX: 14000000 instructions simulated : ctaid=(1,19,0) tid=(21,2,0)
GPGPU-Sim uArch: cycles simulated: 38000  inst.: 12562752 (ipc=330.6) sim_rate=76137 (inst/sec) elapsed = 0:0:02:45 / Fri May 15 10:32:22 2015
GPGPU-Sim PTX: 14100000 instructions simulated : ctaid=(0,24,0) tid=(25,0,0)
GPGPU-Sim PTX: 14200000 instructions simulated : ctaid=(1,19,0) tid=(15,0,0)
GPGPU-Sim uArch: cycles simulated: 38500  inst.: 12728656 (ipc=330.6) sim_rate=76219 (inst/sec) elapsed = 0:0:02:47 / Fri May 15 10:32:24 2015
GPGPU-Sim PTX: 14300000 instructions simulated : ctaid=(0,10,0) tid=(10,2,0)
GPGPU-Sim PTX: 14400000 instructions simulated : ctaid=(3,15,0) tid=(0,1,0)
GPGPU-Sim uArch: cycles simulated: 39000  inst.: 12897312 (ipc=330.7) sim_rate=76315 (inst/sec) elapsed = 0:0:02:49 / Fri May 15 10:32:26 2015
GPGPU-Sim PTX: 14500000 instructions simulated : ctaid=(1,20,0) tid=(16,3,0)
GPGPU-Sim PTX: 14600000 instructions simulated : ctaid=(1,6,0) tid=(13,1,0)
GPGPU-Sim uArch: cycles simulated: 39500  inst.: 13067050 (ipc=330.8) sim_rate=76415 (inst/sec) elapsed = 0:0:02:51 / Fri May 15 10:32:28 2015
GPGPU-Sim PTX: 14700000 instructions simulated : ctaid=(0,1,0) tid=(12,3,0)
GPGPU-Sim PTX: 14800000 instructions simulated : ctaid=(2,1,0) tid=(0,2,0)
GPGPU-Sim uArch: cycles simulated: 40000  inst.: 13230389 (ipc=330.8) sim_rate=76476 (inst/sec) elapsed = 0:0:02:53 / Fri May 15 10:32:30 2015
GPGPU-Sim PTX: 14900000 instructions simulated : ctaid=(1,2,0) tid=(1,3,0)
GPGPU-Sim PTX: 15000000 instructions simulated : ctaid=(1,19,0) tid=(21,1,0)
GPGPU-Sim uArch: cycles simulated: 40500  inst.: 13388914 (ipc=330.6) sim_rate=76508 (inst/sec) elapsed = 0:0:02:55 / Fri May 15 10:32:32 2015
GPGPU-Sim PTX: 15100000 instructions simulated : ctaid=(0,15,0) tid=(22,2,0)
GPGPU-Sim uArch: cycles simulated: 41000  inst.: 13561305 (ipc=330.8) sim_rate=76617 (inst/sec) elapsed = 0:0:02:57 / Fri May 15 10:32:34 2015
GPGPU-Sim PTX: 15200000 instructions simulated : ctaid=(2,13,0) tid=(23,1,0)
GPGPU-Sim PTX: 15300000 instructions simulated : ctaid=(1,11,0) tid=(6,3,0)
GPGPU-Sim uArch: cycles simulated: 41500  inst.: 13729222 (ipc=330.8) sim_rate=76699 (inst/sec) elapsed = 0:0:02:59 / Fri May 15 10:32:36 2015
GPGPU-Sim PTX: 15400000 instructions simulated : ctaid=(2,18,0) tid=(18,0,0)
GPGPU-Sim PTX: 15500000 instructions simulated : ctaid=(1,15,0) tid=(25,1,0)
GPGPU-Sim uArch: cycles simulated: 42000  inst.: 13897174 (ipc=330.9) sim_rate=76358 (inst/sec) elapsed = 0:0:03:02 / Fri May 15 10:32:39 2015
GPGPU-Sim PTX: 15600000 instructions simulated : ctaid=(1,14,0) tid=(22,0,0)
GPGPU-Sim PTX: 15700000 instructions simulated : ctaid=(2,1,0) tid=(23,0,0)
GPGPU-Sim uArch: cycles simulated: 42500  inst.: 14062823 (ipc=330.9) sim_rate=76428 (inst/sec) elapsed = 0:0:03:04 / Fri May 15 10:32:41 2015
GPGPU-Sim PTX: 15800000 instructions simulated : ctaid=(0,17,0) tid=(5,2,0)
GPGPU-Sim PTX: 15900000 instructions simulated : ctaid=(2,7,0) tid=(21,3,0)
GPGPU-Sim uArch: cycles simulated: 43000  inst.: 14225207 (ipc=330.8) sim_rate=76479 (inst/sec) elapsed = 0:0:03:06 / Fri May 15 10:32:43 2015
GPGPU-Sim PTX: 16000000 instructions simulated : ctaid=(1,7,0) tid=(25,3,0)
GPGPU-Sim PTX: 16100000 instructions simulated : ctaid=(0,15,0) tid=(13,1,0)
GPGPU-Sim uArch: cycles simulated: 43500  inst.: 14396178 (ipc=330.9) sim_rate=76575 (inst/sec) elapsed = 0:0:03:08 / Fri May 15 10:32:45 2015
GPGPU-Sim PTX: 16200000 instructions simulated : ctaid=(1,18,0) tid=(6,2,0)
GPGPU-Sim PTX: 16300000 instructions simulated : ctaid=(2,11,0) tid=(17,2,0)
GPGPU-Sim uArch: cycles simulated: 44000  inst.: 14567955 (ipc=331.1) sim_rate=76673 (inst/sec) elapsed = 0:0:03:10 / Fri May 15 10:32:47 2015
GPGPU-Sim PTX: 16400000 instructions simulated : ctaid=(1,23,0) tid=(11,0,0)
GPGPU-Sim PTX: 16500000 instructions simulated : ctaid=(2,16,0) tid=(28,1,0)
GPGPU-Sim uArch: cycles simulated: 44500  inst.: 14734795 (ipc=331.1) sim_rate=76743 (inst/sec) elapsed = 0:0:03:12 / Fri May 15 10:32:49 2015
GPGPU-Sim PTX: 16600000 instructions simulated : ctaid=(1,0,0) tid=(10,2,0)
GPGPU-Sim PTX: 16700000 instructions simulated : ctaid=(2,22,0) tid=(0,2,0)
GPGPU-Sim uArch: cycles simulated: 45000  inst.: 14899987 (ipc=331.1) sim_rate=76804 (inst/sec) elapsed = 0:0:03:14 / Fri May 15 10:32:51 2015
GPGPU-Sim PTX: 16800000 instructions simulated : ctaid=(0,14,0) tid=(1,3,0)
GPGPU-Sim uArch: cycles simulated: 45500  inst.: 15070518 (ipc=331.2) sim_rate=76890 (inst/sec) elapsed = 0:0:03:16 / Fri May 15 10:32:53 2015
GPGPU-Sim PTX: 16900000 instructions simulated : ctaid=(0,14,0) tid=(5,3,0)
GPGPU-Sim PTX: 17000000 instructions simulated : ctaid=(0,8,0) tid=(3,2,0)
GPGPU-Sim uArch: cycles simulated: 46000  inst.: 15244315 (ipc=331.4) sim_rate=76991 (inst/sec) elapsed = 0:0:03:18 / Fri May 15 10:32:55 2015
GPGPU-Sim PTX: 17100000 instructions simulated : ctaid=(1,8,0) tid=(30,3,0)
GPGPU-Sim PTX: 17200000 instructions simulated : ctaid=(0,3,0) tid=(11,0,0)
GPGPU-Sim uArch: cycles simulated: 46500  inst.: 15415512 (ipc=331.5) sim_rate=77077 (inst/sec) elapsed = 0:0:03:20 / Fri May 15 10:32:57 2015
GPGPU-Sim PTX: 17300000 instructions simulated : ctaid=(0,17,0) tid=(11,0,0)
GPGPU-Sim PTX: 17400000 instructions simulated : ctaid=(0,17,0) tid=(22,1,0)
GPGPU-Sim uArch: cycles simulated: 47000  inst.: 15586484 (ipc=331.6) sim_rate=76780 (inst/sec) elapsed = 0:0:03:23 / Fri May 15 10:33:00 2015
GPGPU-Sim PTX: 17500000 instructions simulated : ctaid=(0,17,0) tid=(6,3,0)
GPGPU-Sim PTX: 17600000 instructions simulated : ctaid=(1,12,0) tid=(18,1,0)
GPGPU-Sim uArch: cycles simulated: 47500  inst.: 15758389 (ipc=331.8) sim_rate=76870 (inst/sec) elapsed = 0:0:03:25 / Fri May 15 10:33:02 2015
GPGPU-Sim PTX: 17700000 instructions simulated : ctaid=(2,15,0) tid=(5,2,0)
GPGPU-Sim PTX: 17800000 instructions simulated : ctaid=(2,15,0) tid=(31,1,0)
GPGPU-Sim uArch: cycles simulated: 48000  inst.: 15918749 (ipc=331.6) sim_rate=76902 (inst/sec) elapsed = 0:0:03:27 / Fri May 15 10:33:04 2015
GPGPU-Sim PTX: 17900000 instructions simulated : ctaid=(2,12,0) tid=(27,2,0)
GPGPU-Sim PTX: 18000000 instructions simulated : ctaid=(0,4,0) tid=(17,1,0)
GPGPU-Sim uArch: cycles simulated: 48500  inst.: 16084257 (ipc=331.6) sim_rate=76958 (inst/sec) elapsed = 0:0:03:29 / Fri May 15 10:33:06 2015
GPGPU-Sim PTX: 18100000 instructions simulated : ctaid=(1,14,0) tid=(4,2,0)
GPGPU-Sim PTX: 18200000 instructions simulated : ctaid=(1,7,0) tid=(12,1,0)
GPGPU-Sim uArch: cycles simulated: 49000  inst.: 16255869 (ipc=331.8) sim_rate=77042 (inst/sec) elapsed = 0:0:03:31 / Fri May 15 10:33:08 2015
GPGPU-Sim PTX: 18300000 instructions simulated : ctaid=(1,10,0) tid=(3,2,0)
GPGPU-Sim PTX: 18400000 instructions simulated : ctaid=(1,22,0) tid=(9,1,0)
GPGPU-Sim uArch: cycles simulated: 49500  inst.: 16426749 (ipc=331.9) sim_rate=77120 (inst/sec) elapsed = 0:0:03:33 / Fri May 15 10:33:10 2015
GPGPU-Sim PTX: 18500000 instructions simulated : ctaid=(2,8,0) tid=(21,1,0)
GPGPU-Sim PTX: 18600000 instructions simulated : ctaid=(2,8,0) tid=(17,2,0)
GPGPU-Sim uArch: cycles simulated: 50000  inst.: 16596718 (ipc=331.9) sim_rate=77194 (inst/sec) elapsed = 0:0:03:35 / Fri May 15 10:33:12 2015
GPGPU-Sim PTX: 18700000 instructions simulated : ctaid=(1,15,0) tid=(1,3,0)
GPGPU-Sim PTX: 18800000 instructions simulated : ctaid=(3,19,0) tid=(0,2,0)
GPGPU-Sim uArch: cycles simulated: 50500  inst.: 16760195 (ipc=331.9) sim_rate=77235 (inst/sec) elapsed = 0:0:03:37 / Fri May 15 10:33:14 2015
GPGPU-Sim PTX: 18900000 instructions simulated : ctaid=(2,5,0) tid=(15,0,0)
GPGPU-Sim uArch: cycles simulated: 51000  inst.: 16927952 (ipc=331.9) sim_rate=77296 (inst/sec) elapsed = 0:0:03:39 / Fri May 15 10:33:16 2015
GPGPU-Sim PTX: 19000000 instructions simulated : ctaid=(1,19,0) tid=(10,1,0)
GPGPU-Sim PTX: 19100000 instructions simulated : ctaid=(2,12,0) tid=(16,0,0)
GPGPU-Sim uArch: cycles simulated: 51500  inst.: 17097048 (ipc=332.0) sim_rate=77013 (inst/sec) elapsed = 0:0:03:42 / Fri May 15 10:33:19 2015
GPGPU-Sim PTX: 19200000 instructions simulated : ctaid=(1,24,0) tid=(30,1,0)
GPGPU-Sim PTX: 19300000 instructions simulated : ctaid=(2,9,0) tid=(28,2,0)
GPGPU-Sim uArch: cycles simulated: 52000  inst.: 17258662 (ipc=331.9) sim_rate=77047 (inst/sec) elapsed = 0:0:03:44 / Fri May 15 10:33:21 2015
GPGPU-Sim PTX: 19400000 instructions simulated : ctaid=(3,6,0) tid=(1,3,0)
GPGPU-Sim PTX: 19500000 instructions simulated : ctaid=(1,18,0) tid=(17,3,0)
GPGPU-Sim uArch: cycles simulated: 52500  inst.: 17429055 (ipc=332.0) sim_rate=77119 (inst/sec) elapsed = 0:0:03:46 / Fri May 15 10:33:23 2015
GPGPU-Sim PTX: 19600000 instructions simulated : ctaid=(1,6,0) tid=(2,2,0)
GPGPU-Sim PTX: 19700000 instructions simulated : ctaid=(2,15,0) tid=(10,2,0)
GPGPU-Sim uArch: cycles simulated: 53000  inst.: 17588537 (ipc=331.9) sim_rate=77142 (inst/sec) elapsed = 0:0:03:48 / Fri May 15 10:33:25 2015
GPGPU-Sim PTX: 19800000 instructions simulated : ctaid=(2,13,0) tid=(5,1,0)
GPGPU-Sim PTX: 19900000 instructions simulated : ctaid=(0,3,0) tid=(23,1,0)
GPGPU-Sim uArch: cycles simulated: 53500  inst.: 17751483 (ipc=331.8) sim_rate=77180 (inst/sec) elapsed = 0:0:03:50 / Fri May 15 10:33:27 2015
GPGPU-Sim PTX: 20000000 instructions simulated : ctaid=(0,17,0) tid=(30,1,0)
GPGPU-Sim PTX: 20100000 instructions simulated : ctaid=(2,9,0) tid=(15,3,0)
GPGPU-Sim uArch: cycles simulated: 54000  inst.: 17915819 (ipc=331.8) sim_rate=77223 (inst/sec) elapsed = 0:0:03:52 / Fri May 15 10:33:29 2015
GPGPU-Sim PTX: 20200000 instructions simulated : ctaid=(1,8,0) tid=(18,0,0)
GPGPU-Sim uArch: cycles simulated: 54500  inst.: 18089884 (ipc=331.9) sim_rate=77307 (inst/sec) elapsed = 0:0:03:54 / Fri May 15 10:33:31 2015
GPGPU-Sim PTX: 20300000 instructions simulated : ctaid=(2,11,0) tid=(15,1,0)
GPGPU-Sim PTX: 20400000 instructions simulated : ctaid=(2,6,0) tid=(27,0,0)
GPGPU-Sim uArch: cycles simulated: 55000  inst.: 18262447 (ipc=332.0) sim_rate=77383 (inst/sec) elapsed = 0:0:03:56 / Fri May 15 10:33:33 2015
GPGPU-Sim PTX: 20500000 instructions simulated : ctaid=(1,10,0) tid=(1,2,0)
GPGPU-Sim PTX: 20600000 instructions simulated : ctaid=(2,18,0) tid=(22,0,0)
GPGPU-Sim uArch: cycles simulated: 55500  inst.: 18427257 (ipc=332.0) sim_rate=77425 (inst/sec) elapsed = 0:0:03:58 / Fri May 15 10:33:35 2015
GPGPU-Sim PTX: 20700000 instructions simulated : ctaid=(2,9,0) tid=(13,2,0)
GPGPU-Sim PTX: 20800000 instructions simulated : ctaid=(1,9,0) tid=(18,0,0)
GPGPU-Sim uArch: cycles simulated: 56000  inst.: 18601856 (ipc=332.2) sim_rate=77507 (inst/sec) elapsed = 0:0:04:00 / Fri May 15 10:33:37 2015
GPGPU-Sim PTX: 20900000 instructions simulated : ctaid=(1,8,0) tid=(16,3,0)
GPGPU-Sim PTX: 21000000 instructions simulated : ctaid=(2,21,0) tid=(6,0,0)
GPGPU-Sim uArch: cycles simulated: 56500  inst.: 18763894 (ipc=332.1) sim_rate=77536 (inst/sec) elapsed = 0:0:04:02 / Fri May 15 10:33:39 2015
GPGPU-Sim PTX: 21100000 instructions simulated : ctaid=(1,13,0) tid=(15,2,0)
GPGPU-Sim PTX: 21200000 instructions simulated : ctaid=(1,15,0) tid=(13,0,0)
GPGPU-Sim uArch: cycles simulated: 57000  inst.: 18926363 (ipc=332.0) sim_rate=77250 (inst/sec) elapsed = 0:0:04:05 / Fri May 15 10:33:42 2015
GPGPU-Sim PTX: 21300000 instructions simulated : ctaid=(1,21,0) tid=(19,3,0)
GPGPU-Sim PTX: 21400000 instructions simulated : ctaid=(2,23,0) tid=(0,0,0)
GPGPU-Sim uArch: cycles simulated: 57500  inst.: 19103447 (ipc=332.2) sim_rate=77341 (inst/sec) elapsed = 0:0:04:07 / Fri May 15 10:33:44 2015
GPGPU-Sim PTX: 21500000 instructions simulated : ctaid=(0,16,0) tid=(11,2,0)
GPGPU-Sim PTX: 21600000 instructions simulated : ctaid=(1,6,0) tid=(26,0,0)
GPGPU-Sim uArch: cycles simulated: 58000  inst.: 19266528 (ipc=332.2) sim_rate=77375 (inst/sec) elapsed = 0:0:04:09 / Fri May 15 10:33:46 2015
GPGPU-Sim PTX: 21700000 instructions simulated : ctaid=(1,17,0) tid=(30,1,0)
GPGPU-Sim PTX: 21800000 instructions simulated : ctaid=(0,22,0) tid=(28,2,0)
GPGPU-Sim uArch: cycles simulated: 58500  inst.: 19435755 (ipc=332.2) sim_rate=77433 (inst/sec) elapsed = 0:0:04:11 / Fri May 15 10:33:48 2015
GPGPU-Sim PTX: 21900000 instructions simulated : ctaid=(2,16,0) tid=(27,0,0)
GPGPU-Sim PTX: 22000000 instructions simulated : ctaid=(1,2,0) tid=(0,2,0)
GPGPU-Sim uArch: cycles simulated: 59000  inst.: 19614257 (ipc=332.4) sim_rate=77526 (inst/sec) elapsed = 0:0:04:13 / Fri May 15 10:33:50 2015
GPGPU-Sim PTX: 22100000 instructions simulated : ctaid=(0,22,0) tid=(27,3,0)
GPGPU-Sim PTX: 22200000 instructions simulated : ctaid=(1,8,0) tid=(0,1,0)
GPGPU-Sim uArch: cycles simulated: 59500  inst.: 19782536 (ipc=332.5) sim_rate=77578 (inst/sec) elapsed = 0:0:04:15 / Fri May 15 10:33:52 2015
GPGPU-Sim PTX: 22300000 instructions simulated : ctaid=(2,24,0) tid=(27,0,0)
GPGPU-Sim uArch: cycles simulated: 60000  inst.: 19947803 (ipc=332.5) sim_rate=77617 (inst/sec) elapsed = 0:0:04:17 / Fri May 15 10:33:54 2015
GPGPU-Sim PTX: 22400000 instructions simulated : ctaid=(0,14,0) tid=(17,1,0)
GPGPU-Sim PTX: 22500000 instructions simulated : ctaid=(1,0,0) tid=(3,2,0)
GPGPU-Sim uArch: cycles simulated: 60500  inst.: 20117050 (ipc=332.5) sim_rate=77672 (inst/sec) elapsed = 0:0:04:19 / Fri May 15 10:33:56 2015
GPGPU-Sim PTX: 22600000 instructions simulated : ctaid=(1,13,0) tid=(3,1,0)
GPGPU-Sim PTX: 22700000 instructions simulated : ctaid=(2,6,0) tid=(0,3,0)
GPGPU-Sim uArch: cycles simulated: 61000  inst.: 20292078 (ipc=332.7) sim_rate=77747 (inst/sec) elapsed = 0:0:04:21 / Fri May 15 10:33:58 2015
GPGPU-Sim PTX: 22800000 instructions simulated : ctaid=(1,20,0) tid=(9,1,0)
GPGPU-Sim PTX: 22900000 instructions simulated : ctaid=(1,15,0) tid=(31,1,0)
GPGPU-Sim uArch: cycles simulated: 61500  inst.: 20459942 (ipc=332.7) sim_rate=77499 (inst/sec) elapsed = 0:0:04:24 / Fri May 15 10:34:01 2015
GPGPU-Sim PTX: 23000000 instructions simulated : ctaid=(3,9,0) tid=(27,1,0)
GPGPU-Sim PTX: 23100000 instructions simulated : ctaid=(3,6,0) tid=(26,3,0)
GPGPU-Sim uArch: cycles simulated: 62000  inst.: 20637840 (ipc=332.9) sim_rate=77585 (inst/sec) elapsed = 0:0:04:26 / Fri May 15 10:34:03 2015
GPGPU-Sim PTX: 23200000 instructions simulated : ctaid=(1,20,0) tid=(1,2,0)
GPGPU-Sim PTX: 23300000 instructions simulated : ctaid=(0,22,0) tid=(4,1,0)
GPGPU-Sim uArch: cycles simulated: 62500  inst.: 20806663 (ipc=332.9) sim_rate=77636 (inst/sec) elapsed = 0:0:04:28 / Fri May 15 10:34:05 2015
GPGPU-Sim PTX: 23400000 instructions simulated : ctaid=(2,15,0) tid=(21,1,0)
GPGPU-Sim PTX: 23500000 instructions simulated : ctaid=(2,6,0) tid=(27,3,0)
GPGPU-Sim uArch: cycles simulated: 63000  inst.: 20976604 (ipc=333.0) sim_rate=77691 (inst/sec) elapsed = 0:0:04:30 / Fri May 15 10:34:07 2015
GPGPU-Sim PTX: 23600000 instructions simulated : ctaid=(2,0,0) tid=(0,1,0)
GPGPU-Sim PTX: 23700000 instructions simulated : ctaid=(2,12,0) tid=(21,3,0)
GPGPU-Sim uArch: cycles simulated: 63500  inst.: 21144209 (ipc=333.0) sim_rate=77736 (inst/sec) elapsed = 0:0:04:32 / Fri May 15 10:34:09 2015
GPGPU-Sim PTX: 23800000 instructions simulated : ctaid=(0,13,0) tid=(24,3,0)
GPGPU-Sim PTX: 23900000 instructions simulated : ctaid=(2,11,0) tid=(24,0,0)
GPGPU-Sim uArch: cycles simulated: 64000  inst.: 21312896 (ipc=333.0) sim_rate=77784 (inst/sec) elapsed = 0:0:04:34 / Fri May 15 10:34:11 2015
GPGPU-Sim PTX: 24000000 instructions simulated : ctaid=(1,5,0) tid=(1,0,0)
GPGPU-Sim PTX: 24100000 instructions simulated : ctaid=(0,22,0) tid=(30,1,0)
GPGPU-Sim uArch: cycles simulated: 64500  inst.: 21478744 (ipc=333.0) sim_rate=77821 (inst/sec) elapsed = 0:0:04:36 / Fri May 15 10:34:13 2015
GPGPU-Sim PTX: 24200000 instructions simulated : ctaid=(3,9,0) tid=(16,2,0)
GPGPU-Sim uArch: cycles simulated: 65000  inst.: 21642906 (ipc=333.0) sim_rate=77852 (inst/sec) elapsed = 0:0:04:38 / Fri May 15 10:34:15 2015
GPGPU-Sim PTX: 24300000 instructions simulated : ctaid=(2,2,0) tid=(12,0,0)
GPGPU-Sim PTX: 24400000 instructions simulated : ctaid=(2,20,0) tid=(21,1,0)
GPGPU-Sim uArch: cycles simulated: 65500  inst.: 21813473 (ipc=333.0) sim_rate=77905 (inst/sec) elapsed = 0:0:04:40 / Fri May 15 10:34:17 2015
GPGPU-Sim PTX: 24500000 instructions simulated : ctaid=(1,20,0) tid=(5,1,0)
GPGPU-Sim PTX: 24600000 instructions simulated : ctaid=(0,11,0) tid=(5,0,0)
GPGPU-Sim uArch: cycles simulated: 66000  inst.: 21986499 (ipc=333.1) sim_rate=77966 (inst/sec) elapsed = 0:0:04:42 / Fri May 15 10:34:19 2015
GPGPU-Sim PTX: 24700000 instructions simulated : ctaid=(3,17,0) tid=(2,2,0)
GPGPU-Sim PTX: 24800000 instructions simulated : ctaid=(0,14,0) tid=(27,1,0)
GPGPU-Sim uArch: cycles simulated: 66500  inst.: 22151035 (ipc=333.1) sim_rate=77722 (inst/sec) elapsed = 0:0:04:45 / Fri May 15 10:34:22 2015
GPGPU-Sim PTX: 24900000 instructions simulated : ctaid=(0,19,0) tid=(2,0,0)
GPGPU-Sim PTX: 25000000 instructions simulated : ctaid=(1,24,0) tid=(17,0,0)
GPGPU-Sim uArch: cycles simulated: 67000  inst.: 22320050 (ipc=333.1) sim_rate=77770 (inst/sec) elapsed = 0:0:04:47 / Fri May 15 10:34:24 2015
GPGPU-Sim PTX: 25100000 instructions simulated : ctaid=(1,12,0) tid=(19,1,0)
GPGPU-Sim PTX: 25200000 instructions simulated : ctaid=(2,13,0) tid=(15,2,0)
GPGPU-Sim uArch: cycles simulated: 67500  inst.: 22484637 (ipc=333.1) sim_rate=77801 (inst/sec) elapsed = 0:0:04:49 / Fri May 15 10:34:26 2015
GPGPU-Sim PTX: 25300000 instructions simulated : ctaid=(3,15,0) tid=(2,1,0)
GPGPU-Sim PTX: 25400000 instructions simulated : ctaid=(2,10,0) tid=(2,1,0)
GPGPU-Sim uArch: cycles simulated: 68000  inst.: 22653392 (ipc=333.1) sim_rate=77846 (inst/sec) elapsed = 0:0:04:51 / Fri May 15 10:34:28 2015
GPGPU-Sim PTX: 25500000 instructions simulated : ctaid=(2,9,0) tid=(5,2,0)
GPGPU-Sim PTX: 25600000 instructions simulated : ctaid=(1,12,0) tid=(3,2,0)
GPGPU-Sim uArch: cycles simulated: 68500  inst.: 22816553 (ipc=333.1) sim_rate=77872 (inst/sec) elapsed = 0:0:04:53 / Fri May 15 10:34:30 2015
GPGPU-Sim PTX: 25700000 instructions simulated : ctaid=(2,19,0) tid=(18,3,0)
GPGPU-Sim PTX: 25800000 instructions simulated : ctaid=(2,2,0) tid=(24,0,0)
GPGPU-Sim uArch: cycles simulated: 69000  inst.: 22988422 (ipc=333.2) sim_rate=77926 (inst/sec) elapsed = 0:0:04:55 / Fri May 15 10:34:32 2015
GPGPU-Sim PTX: 25900000 instructions simulated : ctaid=(0,8,0) tid=(16,2,0)
GPGPU-Sim uArch: cycles simulated: 69500  inst.: 23152060 (ipc=333.1) sim_rate=77691 (inst/sec) elapsed = 0:0:04:58 / Fri May 15 10:34:35 2015
GPGPU-Sim PTX: 26000000 instructions simulated : ctaid=(1,2,0) tid=(0,3,0)
GPGPU-Sim PTX: 26100000 instructions simulated : ctaid=(1,11,0) tid=(20,0,0)
GPGPU-Sim uArch: cycles simulated: 70000  inst.: 23321757 (ipc=333.2) sim_rate=77739 (inst/sec) elapsed = 0:0:05:00 / Fri May 15 10:34:37 2015
GPGPU-Sim PTX: 26200000 instructions simulated : ctaid=(2,21,0) tid=(4,1,0)
GPGPU-Sim PTX: 26300000 instructions simulated : ctaid=(1,19,0) tid=(25,2,0)
GPGPU-Sim uArch: cycles simulated: 70500  inst.: 23494228 (ipc=333.3) sim_rate=77795 (inst/sec) elapsed = 0:0:05:02 / Fri May 15 10:34:39 2015
GPGPU-Sim PTX: 26400000 instructions simulated : ctaid=(1,17,0) tid=(2,0,0)
GPGPU-Sim PTX: 26500000 instructions simulated : ctaid=(0,6,0) tid=(17,0,0)
GPGPU-Sim uArch: cycles simulated: 71000  inst.: 23671592 (ipc=333.4) sim_rate=77867 (inst/sec) elapsed = 0:0:05:04 / Fri May 15 10:34:41 2015
GPGPU-Sim PTX: 26600000 instructions simulated : ctaid=(2,8,0) tid=(1,0,0)
GPGPU-Sim PTX: 26700000 instructions simulated : ctaid=(1,14,0) tid=(4,0,0)
GPGPU-Sim uArch: cycles simulated: 71500  inst.: 23840274 (ipc=333.4) sim_rate=77655 (inst/sec) elapsed = 0:0:05:07 / Fri May 15 10:34:44 2015
GPGPU-Sim PTX: 26800000 instructions simulated : ctaid=(1,21,0) tid=(5,1,0)
GPGPU-Sim PTX: 26900000 instructions simulated : ctaid=(1,24,0) tid=(6,0,0)
GPGPU-Sim uArch: cycles simulated: 72000  inst.: 24000529 (ipc=333.3) sim_rate=77671 (inst/sec) elapsed = 0:0:05:09 / Fri May 15 10:34:46 2015
GPGPU-Sim PTX: 27000000 instructions simulated : ctaid=(0,13,0) tid=(11,1,0)
GPGPU-Sim PTX: 27100000 instructions simulated : ctaid=(2,16,0) tid=(11,2,0)
GPGPU-Sim uArch: cycles simulated: 72500  inst.: 24177642 (ipc=333.5) sim_rate=77741 (inst/sec) elapsed = 0:0:05:11 / Fri May 15 10:34:48 2015
GPGPU-Sim PTX: 27200000 instructions simulated : ctaid=(1,21,0) tid=(12,0,0)
GPGPU-Sim PTX: 27300000 instructions simulated : ctaid=(1,0,0) tid=(3,0,0)
GPGPU-Sim uArch: cycles simulated: 73000  inst.: 24343760 (ipc=333.5) sim_rate=77775 (inst/sec) elapsed = 0:0:05:13 / Fri May 15 10:34:50 2015
GPGPU-Sim PTX: 27400000 instructions simulated : ctaid=(2,14,0) tid=(23,1,0)
GPGPU-Sim PTX: 27500000 instructions simulated : ctaid=(0,23,0) tid=(19,1,0)
GPGPU-Sim uArch: cycles simulated: 73500  inst.: 24503749 (ipc=333.4) sim_rate=77543 (inst/sec) elapsed = 0:0:05:16 / Fri May 15 10:34:53 2015
GPGPU-Sim PTX: 27600000 instructions simulated : ctaid=(0,7,0) tid=(24,0,0)
GPGPU-Sim PTX: 27700000 instructions simulated : ctaid=(2,14,0) tid=(7,2,0)
GPGPU-Sim uArch: cycles simulated: 74000  inst.: 24678071 (ipc=333.5) sim_rate=77603 (inst/sec) elapsed = 0:0:05:18 / Fri May 15 10:34:55 2015
GPGPU-Sim PTX: 27800000 instructions simulated : ctaid=(1,3,0) tid=(29,2,0)
GPGPU-Sim PTX: 27900000 instructions simulated : ctaid=(1,15,0) tid=(8,3,0)
GPGPU-Sim uArch: cycles simulated: 74500  inst.: 24852086 (ipc=333.6) sim_rate=77662 (inst/sec) elapsed = 0:0:05:20 / Fri May 15 10:34:57 2015
GPGPU-Sim PTX: 28000000 instructions simulated : ctaid=(1,22,0) tid=(25,0,0)
GPGPU-Sim PTX: 28100000 instructions simulated : ctaid=(1,1,0) tid=(25,0,0)
GPGPU-Sim uArch: cycles simulated: 75000  inst.: 25018664 (ipc=333.6) sim_rate=77697 (inst/sec) elapsed = 0:0:05:22 / Fri May 15 10:34:59 2015
GPGPU-Sim PTX: 28200000 instructions simulated : ctaid=(1,17,0) tid=(21,0,0)
GPGPU-Sim uArch: cycles simulated: 75500  inst.: 25183620 (ipc=333.6) sim_rate=77727 (inst/sec) elapsed = 0:0:05:24 / Fri May 15 10:35:01 2015
GPGPU-Sim PTX: 28300000 instructions simulated : ctaid=(3,16,0) tid=(14,1,0)
GPGPU-Sim PTX: 28400000 instructions simulated : ctaid=(2,15,0) tid=(0,0,0)
GPGPU-Sim uArch: cycles simulated: 76000  inst.: 25347951 (ipc=333.5) sim_rate=77754 (inst/sec) elapsed = 0:0:05:26 / Fri May 15 10:35:03 2015
GPGPU-Sim PTX: 28500000 instructions simulated : ctaid=(1,9,0) tid=(9,1,0)
GPGPU-Sim PTX: 28600000 instructions simulated : ctaid=(2,22,0) tid=(8,0,0)
GPGPU-Sim uArch: cycles simulated: 76500  inst.: 25516679 (ipc=333.6) sim_rate=77794 (inst/sec) elapsed = 0:0:05:28 / Fri May 15 10:35:05 2015
GPGPU-Sim PTX: 28700000 instructions simulated : ctaid=(0,18,0) tid=(14,0,0)
GPGPU-Sim PTX: 28800000 instructions simulated : ctaid=(1,3,0) tid=(26,2,0)
GPGPU-Sim uArch: cycles simulated: 77000  inst.: 25687644 (ipc=333.6) sim_rate=77841 (inst/sec) elapsed = 0:0:05:30 / Fri May 15 10:35:07 2015
GPGPU-Sim PTX: 28900000 instructions simulated : ctaid=(1,12,0) tid=(30,1,0)
GPGPU-Sim PTX: 29000000 instructions simulated : ctaid=(0,24,0) tid=(6,2,0)
GPGPU-Sim uArch: cycles simulated: 77500  inst.: 25858173 (ipc=333.7) sim_rate=77886 (inst/sec) elapsed = 0:0:05:32 / Fri May 15 10:35:09 2015
GPGPU-Sim PTX: 29100000 instructions simulated : ctaid=(2,1,0) tid=(5,2,0)
GPGPU-Sim PTX: 29200000 instructions simulated : ctaid=(1,11,0) tid=(7,1,0)
GPGPU-Sim uArch: cycles simulated: 78000  inst.: 26030616 (ipc=333.7) sim_rate=77703 (inst/sec) elapsed = 0:0:05:35 / Fri May 15 10:35:12 2015
GPGPU-Sim PTX: 29300000 instructions simulated : ctaid=(1,0,0) tid=(19,3,0)
GPGPU-Sim PTX: 29400000 instructions simulated : ctaid=(1,18,0) tid=(3,0,0)
GPGPU-Sim uArch: cycles simulated: 78500  inst.: 26201657 (ipc=333.8) sim_rate=77749 (inst/sec) elapsed = 0:0:05:37 / Fri May 15 10:35:14 2015
GPGPU-Sim PTX: 29500000 instructions simulated : ctaid=(0,17,0) tid=(21,3,0)
GPGPU-Sim PTX: 29600000 instructions simulated : ctaid=(2,11,0) tid=(0,0,0)
GPGPU-Sim uArch: cycles simulated: 79000  inst.: 26370144 (ipc=333.8) sim_rate=77788 (inst/sec) elapsed = 0:0:05:39 / Fri May 15 10:35:16 2015
GPGPU-Sim PTX: 29700000 instructions simulated : ctaid=(2,8,0) tid=(22,2,0)
GPGPU-Sim PTX: 29800000 instructions simulated : ctaid=(2,15,0) tid=(29,1,0)
GPGPU-Sim uArch: cycles simulated: 79500  inst.: 26540892 (ipc=333.8) sim_rate=77604 (inst/sec) elapsed = 0:0:05:42 / Fri May 15 10:35:19 2015
GPGPU-Sim PTX: 29900000 instructions simulated : ctaid=(2,19,0) tid=(20,3,0)
GPGPU-Sim PTX: 30000000 instructions simulated : ctaid=(2,17,0) tid=(29,0,0)
GPGPU-Sim uArch: cycles simulated: 80000  inst.: 26712722 (ipc=333.9) sim_rate=77653 (inst/sec) elapsed = 0:0:05:44 / Fri May 15 10:35:21 2015
GPGPU-Sim PTX: 30100000 instructions simulated : ctaid=(1,14,0) tid=(26,3,0)
GPGPU-Sim PTX: 30200000 instructions simulated : ctaid=(1,9,0) tid=(27,2,0)
GPGPU-Sim uArch: cycles simulated: 80500  inst.: 26888759 (ipc=334.0) sim_rate=77489 (inst/sec) elapsed = 0:0:05:47 / Fri May 15 10:35:24 2015
GPGPU-Sim PTX: 30300000 instructions simulated : ctaid=(2,22,0) tid=(20,3,0)
GPGPU-Sim PTX: 30400000 instructions simulated : ctaid=(3,18,0) tid=(31,1,0)
GPGPU-Sim uArch: cycles simulated: 81000  inst.: 27062217 (ipc=334.1) sim_rate=77542 (inst/sec) elapsed = 0:0:05:49 / Fri May 15 10:35:26 2015
GPGPU-Sim PTX: 30500000 instructions simulated : ctaid=(2,1,0) tid=(17,1,0)
GPGPU-Sim uArch: cycles simulated: 81500  inst.: 27232887 (ipc=334.1) sim_rate=77366 (inst/sec) elapsed = 0:0:05:52 / Fri May 15 10:35:29 2015
GPGPU-Sim PTX: 30600000 instructions simulated : ctaid=(1,1,0) tid=(13,2,0)
GPGPU-Sim PTX: 30700000 instructions simulated : ctaid=(0,18,0) tid=(0,3,0)
GPGPU-Sim uArch: cycles simulated: 82000  inst.: 27404744 (ipc=334.2) sim_rate=77414 (inst/sec) elapsed = 0:0:05:54 / Fri May 15 10:35:31 2015
GPGPU-Sim PTX: 30800000 instructions simulated : ctaid=(1,12,0) tid=(9,0,0)
GPGPU-Sim PTX: 30900000 instructions simulated : ctaid=(2,17,0) tid=(9,1,0)
GPGPU-Sim uArch: cycles simulated: 82500  inst.: 27574776 (ipc=334.2) sim_rate=77457 (inst/sec) elapsed = 0:0:05:56 / Fri May 15 10:35:33 2015
GPGPU-Sim PTX: 31000000 instructions simulated : ctaid=(1,12,0) tid=(15,0,0)
GPGPU-Sim PTX: 31100000 instructions simulated : ctaid=(2,22,0) tid=(13,1,0)
GPGPU-Sim uArch: cycles simulated: 83000  inst.: 27748813 (ipc=334.3) sim_rate=77510 (inst/sec) elapsed = 0:0:05:58 / Fri May 15 10:35:35 2015
GPGPU-Sim PTX: 31200000 instructions simulated : ctaid=(0,12,0) tid=(8,1,0)
GPGPU-Sim PTX: 31300000 instructions simulated : ctaid=(2,24,0) tid=(9,3,0)
GPGPU-Sim uArch: cycles simulated: 83500  inst.: 27918464 (ipc=334.4) sim_rate=77551 (inst/sec) elapsed = 0:0:06:00 / Fri May 15 10:35:37 2015
GPGPU-Sim PTX: 31400000 instructions simulated : ctaid=(1,16,0) tid=(31,3,0)
GPGPU-Sim PTX: 31500000 instructions simulated : ctaid=(1,2,0) tid=(24,1,0)
GPGPU-Sim uArch: cycles simulated: 84000  inst.: 28086256 (ipc=334.4) sim_rate=77586 (inst/sec) elapsed = 0:0:06:02 / Fri May 15 10:35:39 2015
GPGPU-Sim PTX: 31600000 instructions simulated : ctaid=(1,21,0) tid=(7,0,0)
GPGPU-Sim PTX: 31700000 instructions simulated : ctaid=(0,7,0) tid=(2,1,0)
GPGPU-Sim uArch: cycles simulated: 84500  inst.: 28249225 (ipc=334.3) sim_rate=77395 (inst/sec) elapsed = 0:0:06:05 / Fri May 15 10:35:42 2015
GPGPU-Sim PTX: 31800000 instructions simulated : ctaid=(1,17,0) tid=(23,1,0)
GPGPU-Sim PTX: 31900000 instructions simulated : ctaid=(2,24,0) tid=(13,1,0)
GPGPU-Sim uArch: cycles simulated: 85000  inst.: 28423439 (ipc=334.4) sim_rate=77448 (inst/sec) elapsed = 0:0:06:07 / Fri May 15 10:35:44 2015
GPGPU-Sim PTX: 32000000 instructions simulated : ctaid=(2,5,0) tid=(26,2,0)
GPGPU-Sim PTX: 32100000 instructions simulated : ctaid=(2,3,0) tid=(13,3,0)
GPGPU-Sim uArch: cycles simulated: 85500  inst.: 28591754 (ipc=334.4) sim_rate=77484 (inst/sec) elapsed = 0:0:06:09 / Fri May 15 10:35:46 2015
GPGPU-Sim PTX: 32200000 instructions simulated : ctaid=(1,0,0) tid=(2,0,0)
GPGPU-Sim PTX: 32300000 instructions simulated : ctaid=(1,13,0) tid=(7,0,0)
GPGPU-Sim uArch: cycles simulated: 86000  inst.: 28756820 (ipc=334.4) sim_rate=77511 (inst/sec) elapsed = 0:0:06:11 / Fri May 15 10:35:48 2015
GPGPU-Sim PTX: 32400000 instructions simulated : ctaid=(1,11,0) tid=(25,1,0)
GPGPU-Sim PTX: 32500000 instructions simulated : ctaid=(2,23,0) tid=(10,3,0)
GPGPU-Sim uArch: cycles simulated: 86500  inst.: 28922368 (ipc=334.4) sim_rate=77539 (inst/sec) elapsed = 0:0:06:13 / Fri May 15 10:35:50 2015
GPGPU-Sim PTX: 32600000 instructions simulated : ctaid=(3,3,0) tid=(12,0,0)
[...]
dq_lat_table:0 	0 	0 	0 	0 	0 	0 	0 	0 	0 	0 	0 	0 	0 	0 	0 	0 	0 	0 	0 	0 	0 	0 	0 	0 	0 	0 	0 	0 	0 	0 	0 	
mf_lat_table:0 	0 	0 	0 	0 	0 	0 	68657 	108274 	556 	0 	0 	0 	0 	0 	0 	0 	0 	0 	0 	0 	0 	0 	0 	0 	0 	0 	0 	0 	0 	0 	0 	
icnt2mem_lat_table:0 	0 	0 	149481 	27304 	714 	142 	42 	14 	0 	0 	0 	0 	0 	0 	0 	0 	0 	0 	0 	0 	0 	0 	0 	
icnt2sh_lat_table:0 	0 	0 	58887 	43641 	8511 	198 	0 	0 	0 	0 	0 	1179 	2528 	4965 	9934 	19916 	26525 	1203 	0 	0 	0 	0 	0 	
mf_lat_pw_table:0 	0 	0 	0 	0 	0 	0 	549 	37 	0 	0 	0 	0 	0 	0 	0 	0 	0 	0 	0 	0 	0 	0 	0 	0 	0 	0 	0 	0 	0 	0 	0 	
maximum concurrent accesses to same row:
dram[0]:        18        18        20        15        16        19        32        32        44        55        45        36        31        25        23        19 
dram[1]:        17        16        14        15        12        15        32        32        46        68        43        28        31        24        20        23 
dram[2]:        14        13        14        19        20        16        32        32        46        54        39        33        16        23        14        18 
dram[3]:        11        18        16        14        19        14        32        32        37        53        41        32        17        29        17        29 
dram[4]:        19        25        13        16        17        16        32        32        45        43        36        32        17        25        14        26 
dram[5]:        17        17        14        12        17        16        32        32        42        46        33        33        23        25        17        19 
maximum service time to same row:
dram[0]:     10446      8806     13085     13563     13720     13981     15662     15597      6656     10116      9648      5349     10406      8031      9416      9388 
dram[1]:     10422     11207     13006     13507     13903     13981     15871     15534     11882     10047      9304      9935      9966      8793      9629      9572 
dram[2]:     10495     11344     13004     13413     13954     14191     15431     15315      9014     11323      9313      8141      8004      8057      9444      9663 
dram[3]:      9578     11316     13404     13412     13973     13921     15901     15748     10258     11867      9589      9676      9599      9650      9588      9669 
dram[4]:      9545     11310     13402     13060     14263     13911     15646     15787     10399     12230      7432      9700      9916      9662      9550      9554 
dram[5]:     10674     11372     13400     13407     13165     12990     15606     15776     11179     12085      6556      6864      8013      9659      9610      9547 
average row accesses per activate:
dram[0]:  2.132458  2.065820  2.099532  2.127962  2.045714  2.094857  2.130841  2.065022  2.232164  2.194639  2.186215  2.161905  2.187042  2.087367  2.152727  2.108363 
dram[1]:  2.065668  2.164434  2.079439  2.120238  2.044118  2.046275  2.117241  2.131395  2.292593  2.176744  2.160332  2.134911  2.137973  2.115614  2.160934  2.091967 
dram[2]:  2.098592  2.059165  2.055749  2.077982  2.117509  2.098494  2.094749  2.122093  2.143843  2.171098  2.143023  2.101896  2.077556  2.156098  2.078639  2.096131 
dram[3]:  2.064442  2.131643  2.109155  2.108876  2.055367  2.083527  2.133566  2.104839  2.214200  2.181503  2.155112  2.086247  2.123501  2.073857  2.088028  2.118906 
dram[4]:  2.120958  2.046136  2.093132  2.049143  2.092379  2.109670  2.054749  2.141667  2.209906  2.243341  2.097254  2.122183  2.089953  2.166259  2.117717  2.098341 
dram[5]:  2.097532  2.079812  2.049312  2.081490  2.086560  2.069124  2.136523  2.097032  2.263669  2.166667  2.113821  2.163265  2.089623  2.131484  2.104773  2.084423 
average row locality = 173239/81830 = 2.117060
number of total memory accesses made:
dram[0]:         0         0         0         0         0         0         0         0         0         0         0         0         0         0         0         0 
dram[1]:         0         0         0         0         0         0         0         0         0         0         0         0         0         0         0         0 
dram[2]:         0         0         0         0         0         0         0         0         0         0         0         0         0         0         0         0 
dram[3]:         0         0         0         0         0         0         0         0         0         0         0         0         0         0         0         0 
dram[4]:         0         0         0         0         0         0         0         0         0         0         0         0         0         0         0         0 
dram[5]:         0         0         0         0         0         0         0         0         0         0         0         0         0         0         0         0 
total accesses: 0
min_bank_accesses = 0!
min_chip_accesses = 0!
number of total read accesses:
dram[0]:      1124      1134      1133      1134      1131      1160      1158      1186      1130      1153      1113      1125      1127      1112      1121      1123 
dram[1]:      1123      1118      1122      1121      1149      1148      1176      1179      1143      1142      1122      1119      1092      1118      1102      1131 
dram[2]:      1120      1122      1112      1147      1144      1147      1166      1168      1149      1141      1139      1097      1113      1109      1113      1125 
dram[3]:      1129      1108      1136      1115      1155      1141      1171      1172      1125      1153      1128      1112      1111      1106      1122      1120 
dram[4]:      1111      1117      1133      1124      1143      1135      1179      1143      1156      1123      1131      1109      1132      1107      1117      1116 
dram[5]:      1132      1114      1133      1125      1161      1144      1173      1174      1138      1135      1123      1116      1114      1100      1139      1098 
total reads: 108680
bank skew: 1186/1092 = 1.09
chip skew: 18164/18076 = 1.00
number of total write accesses:
dram[0]:       663       655       660       662       659       673       666       656       716       730       695       691       662       656       655       667 
dram[1]:       670       659       658       660       658       665       666       654       714       730       697       685       659       657       657       666 
dram[2]:       668       653       658       665       658       664       669       657       714       737       704       677       655       659       658       663 
dram[3]:       665       657       661       667       664       655       666       655       715       734       706       678       660       663       657       662 
dram[4]:       660       657       665       669       669       654       660       656       718       730       702       680       657       665       664       655 
dram[5]:       653       658       654       663       671       652       658       663       725       724       697       686       658       667       669       655 
total reads: 64559
bank skew: 737/652 = 1.13
chip skew: 10766/10753 = 1.00
average mf latency per bank:
dram[0]:        242       241       242       241       247       243       252       255       251       259       242       243       243       247       246       245
dram[1]:        242       243       241       241       245       245       255       254       255       263       245       244       244       243       245       243
dram[2]:        244       243       243       241       245       244       253       253       252       258       242       246       245       243       244       244
dram[3]:        243       244       242       242       245       249       254       253       252       252       243       248       245       246       242       243
dram[4]:        241       243       242       244       245       248       251       252       253       249       243       245       244       245       243       242
dram[5]:        243       242       243       242       244       247       251       251       254       251       241       243       245       246       240       244
maximum mf latency per bank:
dram[0]:        455       460       493       488       557       579       489       471       627       794       492       579       477       452       554       468
dram[1]:        457       498       535       503       479       437       570       450       706       886       558       640       499       462       507       428
dram[2]:        476       435       481       502       760       509       600       506       668       790       525       564       488       522       492       667
dram[3]:        494       471       442       441       541       532       581       608       596       784       488       566       446       434       538       440
dram[4]:        424       507       490       499       449       489       482       505       704       631       471       450       441       431       453       427
dram[5]:        496       465       485       458       419       466       489       449       739       764       659       558       495       597       451       570

Number of Memory Banks Accessed per Memory Operation per Warp (from 0):
0	0	0	0	0	0	0	0	0	0	0	0	0	0	0	0	0	0	0	0	0	0	0	0	0	0	0	0	0	0	0	0	0	0	0	0	0	0	0	0	0	0	0	0	0	0	0	0	0	0	0	0	0	0	0	0	0	0	0	0	0	0	0	0	0	0	0	0	0	0	0	0	0	0	0	0	0	0	0	0	0	0	0	0	0	0	0	0	0	0	0	0	0	0	0	0	
Average # of Memory Banks Accessed per Memory Operation per Warp=-nan

position of mrq chosen
0	0	0	0	0	0	0	0	0	0	0	0	0	0	0	0	

average position of mrq chosen = -nan
Memory Partition 0: 
Cache L2_bank_000:
MSHR contents

Cache L2_bank_001:
MSHR contents

In Dram Latency Queue (total = 0): 
DRAM[0]: 16 bks, busW=4 BL=8 CL=12, tRRD=2 tCCD=6, tRCD=12 tRAS=28 tRP=12 tRC=40
n_cmd=387438 n_nop=307420 n_act=13591 n_pre=13575 n_req=28930 n_rd=36328 n_write=16524 bw_util=0.2728
n_activity=317480 dram_eff=0.3329
bk0: 2248a 342558i bk1: 2268a 340600i bk2: 2266a 340179i bk3: 2268a 339229i bk4: 2262a 339582i bk5: 2320a 338532i bk6: 2316a 339928i bk7: 2372a 337687i bk8: 2260a 339753i bk9: 2306a 338663i bk10: 2226a 339006i bk11: 2250a 339651i bk12: 2254a 340390i bk13: 2224a 339745i bk14: 2242a 340370i bk15: 2246a 339323i 
dram_util_bins: 0 0 0 0 0 0 0 0 0 0
dram_eff_bins: 0 0 0 0 0 0 0 0 0 0
mrqq: max=16 avg=1.60811
Memory Partition 1: 
Cache L2_bank_002:
MSHR contents

Cache L2_bank_003:
MSHR contents

In Dram Latency Queue (total = 0): 
DRAM[1]: 16 bks, busW=4 BL=8 CL=12, tRRD=2 tCCD=6, tRCD=12 tRAS=28 tRP=12 tRC=40
n_cmd=387438 n_nop=307596 n_act=13573 n_pre=13557 n_req=28860 n_rd=36210 n_write=16502 bw_util=0.2721
n_activity=316725 dram_eff=0.3329
bk0: 2246a 340059i bk1: 2236a 341099i bk2: 2244a 339680i bk3: 2242a 340643i bk4: 2298a 338779i bk5: 2296a 338279i bk6: 2352a 337838i bk7: 2358a 338816i bk8: 2286a 340226i bk9: 2284a 339048i bk10: 2244a 339436i bk11: 2238a 339264i bk12: 2184a 341781i bk13: 2236a 339420i bk14: 2204a 340234i bk15: 2262a 339410i 
dram_util_bins: 0 0 0 0 0 0 0 0 0 0
dram_eff_bins: 0 0 0 0 0 0 0 0 0 0
mrqq: max=16 avg=1.63487
Memory Partition 2: 
Cache L2_bank_004:
MSHR contents

Cache L2_bank_005:
MSHR contents

In Dram Latency Queue (total = 0): 
DRAM[2]: 16 bks, busW=4 BL=8 CL=12, tRRD=2 tCCD=6, tRCD=12 tRAS=28 tRP=12 tRC=40
n_cmd=387438 n_nop=307274 n_act=13711 n_pre=13695 n_req=28871 n_rd=36224 n_write=16534 bw_util=0.2723
n_activity=316165 dram_eff=0.3337
bk0: 2240a 341442i bk1: 2244a 341316i bk2: 2224a 340792i bk3: 2294a 339406i bk4: 2288a 339223i bk5: 2294a 339064i bk6: 2332a 338723i bk7: 2336a 338245i bk8: 2298a 339270i bk9: 2282a 337845i bk10: 2278a 339282i bk11: 2194a 340252i bk12: 2226a 340425i bk13: 2218a 340771i bk14: 2226a 338663i bk15: 2250a 339211i 
dram_util_bins: 0 0 0 0 0 0 0 0 0 0
dram_eff_bins: 0 0 0 0 0 0 0 0 0 0
mrqq: max=16 avg=1.62527
Memory Partition 3: 
Cache L2_bank_006:
MSHR contents
MSHR: tag=0x80799f80, atomic=0 1 entries : 0x7fbcd10c75f0 :  mf: uid=2225226, sid10:w07, part=3, addr=0x80799fe0, load , size=32, unknown  status = IN_PARTITION_DRAM (293510), 

Cache L2_bank_007:
MSHR contents

In Dram Latency Queue (total = 0): 
DRAM[3]: 16 bks, busW=4 BL=8 CL=12, tRRD=2 tCCD=6, tRCD=12 tRAS=28 tRP=12 tRC=40
n_cmd=387438 n_nop=307363 n_act=13655 n_pre=13639 n_req=28869 n_rd=36208 n_write=16573 bw_util=0.2725
n_activity=316723 dram_eff=0.3333
bk0: 2258a 341235i bk1: 2216a 341651i bk2: 2272a 339896i bk3: 2230a 339977i bk4: 2310a 339233i bk5: 2282a 339020i bk6: 2342a 338645i bk7: 2344a 337418i bk8: 2250a 340208i bk9: 2306a 338350i bk10: 2256a 338766i bk11: 2224a 339359i bk12: 2222a 340319i bk13: 2212a 340197i bk14: 2244a 339337i bk15: 2240a 339449i 
dram_util_bins: 0 0 0 0 0 0 0 0 0 0
dram_eff_bins: 0 0 0 0 0 0 0 0 0 0
mrqq: max=16 avg=1.64842
Memory Partition 4: 
Cache L2_bank_008:
MSHR contents
MSHR: tag=0x8079a000, atomic=0 1 entries : 0x7fbcd10bc2e0 :  mf: uid=2225225, sid10:w07, part=4, addr=0x8079a000, load , size=128, unknown  status = IN_PARTITION_DRAM (293509), 

Cache L2_bank_009:
MSHR contents

In Dram Latency Queue (total = 0): 
DRAM[4]: 16 bks, busW=4 BL=8 CL=12, tRRD=2 tCCD=6, tRCD=12 tRAS=28 tRP=12 tRC=40
n_cmd=387438 n_nop=307496 n_act=13635 n_pre=13619 n_req=28837 n_rd=36152 n_write=16536 bw_util=0.272
n_activity=316259 dram_eff=0.3332
bk0: 2222a 341747i bk1: 2234a 340000i bk2: 2266a 338940i bk3: 2248a 339513i bk4: 2286a 339030i bk5: 2270a 340089i bk6: 2358a 338156i bk7: 2286a 339212i bk8: 2312a 339911i bk9: 2246a 339968i bk10: 2262a 339400i bk11: 2218a 340019i bk12: 2264a 341106i bk13: 2214a 340843i bk14: 2234a 339992i bk15: 2232a 341241i 
dram_util_bins: 0 0 0 0 0 0 0 0 0 0
dram_eff_bins: 0 0 0 0 0 0 0 0 0 0
mrqq: max=16 avg=1.59566
Memory Partition 5: 
Cache L2_bank_010:
MSHR contents

Cache L2_bank_011:
MSHR contents

In Dram Latency Queue (total = 0): 
DRAM[5]: 16 bks, busW=4 BL=8 CL=12, tRRD=2 tCCD=6, tRCD=12 tRAS=28 tRP=12 tRC=40
n_cmd=387438 n_nop=307383 n_act=13665 n_pre=13649 n_req=28872 n_rd=36238 n_write=16503 bw_util=0.2723
n_activity=315893 dram_eff=0.3339
bk0: 2264a 339897i bk1: 2228a 340985i bk2: 2266a 339668i bk3: 2250a 340545i bk4: 2322a 338376i bk5: 2288a 338917i bk6: 2346a 338783i bk7: 2348a 337094i bk8: 2276a 339562i bk9: 2270a 339603i bk10: 2246a 340590i bk11: 2232a 339161i bk12: 2228a 340472i bk13: 2200a 340929i bk14: 2278a 340012i bk15: 2196a 340356i 
dram_util_bins: 0 0 0 0 0 0 0 0 0 0
dram_eff_bins: 0 0 0 0 0 0 0 0 0 0
mrqq: max=16 avg=1.61013

========= L2 cache stats =========
L2_cache_bank[0]: Access = 14832, Miss = 9037, Miss_rate = 0.609, Pending_hits = 312, Reservation_fails = 247
L2_cache_bank[1]: Access = 14813, Miss = 9127, Miss_rate = 0.616, Pending_hits = 353, Reservation_fails = 160
L2_cache_bank[2]: Access = 14820, Miss = 9029, Miss_rate = 0.609, Pending_hits = 295, Reservation_fails = 165
L2_cache_bank[3]: Access = 14778, Miss = 9076, Miss_rate = 0.614, Pending_hits = 336, Reservation_fails = 1
L2_cache_bank[4]: Access = 14826, Miss = 9056, Miss_rate = 0.611, Pending_hits = 299, Reservation_fails = 195
L2_cache_bank[5]: Access = 14780, Miss = 9056, Miss_rate = 0.613, Pending_hits = 338, Reservation_fails = 60
L2_cache_bank[6]: Access = 14849, Miss = 9077, Miss_rate = 0.611, Pending_hits = 323, Reservation_fails = 178
L2_cache_bank[7]: Access = 14788, Miss = 9027, Miss_rate = 0.610, Pending_hits = 332, Reservation_fails = 1
L2_cache_bank[8]: Access = 14829, Miss = 9102, Miss_rate = 0.614, Pending_hits = 367, Reservation_fails = 181
L2_cache_bank[9]: Access = 14782, Miss = 8974, Miss_rate = 0.607, Pending_hits = 362, Reservation_fails = 2
L2_cache_bank[10]: Access = 14819, Miss = 9113, Miss_rate = 0.615, Pending_hits = 329, Reservation_fails = 181
L2_cache_bank[11]: Access = 14781, Miss = 9006, Miss_rate = 0.609, Pending_hits = 320, Reservation_fails = 3
L2_total_cache_accesses = 177697
L2_total_cache_misses = 108680
L2_total_cache_miss_rate = 0.6116
L2_total_cache_pending_hits = 3966
L2_total_cache_reservation_fails = 1374
L2_total_cache_breakdown:
	L2_cache_stats_breakdown[GLOBAL_ACC_R][HIT] = 49753
	L2_cache_stats_breakdown[GLOBAL_ACC_R][HIT_RESERVED] = 2822
	L2_cache_stats_breakdown[GLOBAL_ACC_R][MISS] = 58647
	L2_cache_stats_breakdown[GLOBAL_ACC_R][RESERVATION_FAIL] = 60
	L2_cache_stats_breakdown[CONST_ACC_R][HIT] = 11
	L2_cache_stats_breakdown[CONST_ACC_R][HIT_RESERVED] = 3
	L2_cache_stats_breakdown[CONST_ACC_R][MISS] = 1
	L2_cache_stats_breakdown[CONST_ACC_R][RESERVATION_FAIL] = 109
	L2_cache_stats_breakdown[GLOBAL_ACC_W][HIT] = 15133
	L2_cache_stats_breakdown[GLOBAL_ACC_W][HIT_RESERVED] = 1099
	L2_cache_stats_breakdown[GLOBAL_ACC_W][MISS] = 50018
	L2_cache_stats_breakdown[GLOBAL_ACC_W][RESERVATION_FAIL] = 8
	L2_cache_stats_breakdown[INST_ACC_R][HIT] = 154
	L2_cache_stats_breakdown[INST_ACC_R][HIT_RESERVED] = 42
	L2_cache_stats_breakdown[INST_ACC_R][MISS] = 14
	L2_cache_stats_breakdown[INST_ACC_R][RESERVATION_FAIL] = 1197
L2_cache_data_port_util = 0.074
L2_cache_fill_port_util = 0.123

icnt_total_pkts_mem_to_simt=623455
icnt_total_pkts_simt_to_mem=337697
LD_mem_lat_dist  0 0 0 0 0 0 0 0 0 0 0 0 0 0 0 0 0 0 0 0 0 0 0 0 0 0 0
ST_mem_lat_dist  0 0 0 0 0 0 0 0 0 0 0 0 0 0 0 0 0 0 0 0 0 0 0 0 0 0 0
----------------------------Interconnect-DETAILS--------------------------------
Class 0:
Packet latency average = 11.5776
	minimum = 6
	maximum = 161
Network latency average = 10.5581
	minimum = 6
	maximum = 158
Slowest packet = 7450
Flit latency average = 9.27468
	minimum = 6
	maximum = 154
Slowest flit = 21108
Fragmentation average = 0.000649983
	minimum = 0
	maximum = 146
Injected packet rate average = 0.0448454
	minimum = 0.0348297 (at node 13)
	maximum = 0.0505904 (at node 21)
Accepted packet rate average = 0.0448454
	minimum = 0.0348297 (at node 13)
	maximum = 0.0505904 (at node 21)
Injected flit rate average = 0.121283
	minimum = 0.0648112 (at node 13)
	maximum = 0.177699 (at node 21)
Accepted flit rate average= 0.121283
	minimum = 0.095774 (at node 18)
	maximum = 0.155318 (at node 7)
Injected packet length average = 2.70447
Accepted packet length average = 2.70447
Total in-flight flits = 0 (0 measured)
====== Overall Traffic Statistics ======
====== Traffic class 0 ======
Packet latency average = 11.5776 (1 samples)
	minimum = 6 (1 samples)
	maximum = 161 (1 samples)
Network latency average = 10.5581 (1 samples)
	minimum = 6 (1 samples)
	maximum = 158 (1 samples)
Flit latency average = 9.27468 (1 samples)
	minimum = 6 (1 samples)
	maximum = 154 (1 samples)
Fragmentation average = 0.000649983 (1 samples)
	minimum = 0 (1 samples)
	maximum = 146 (1 samples)
Injected packet rate average = 0.0448454 (1 samples)
	minimum = 0.0348297 (1 samples)
	maximum = 0.0505904 (1 samples)
Accepted packet rate average = 0.0448454 (1 samples)
	minimum = 0.0348297 (1 samples)
	maximum = 0.0505904 (1 samples)
Injected flit rate average = 0.121283 (1 samples)
	minimum = 0.0648112 (1 samples)
	maximum = 0.177699 (1 samples)
Accepted flit rate average = 0.121283 (1 samples)
	minimum = 0.095774 (1 samples)
	maximum = 0.155318 (1 samples)
Injected packet size average = 2.70447 (1 samples)
Accepted packet size average = 2.70447 (1 samples)
Hops average = 1 (1 samples)
----------------------------END-of-Interconnect-DETAILS-------------------------


gpgpu_simulation_time = 0 days, 0 hrs, 17 min, 14 sec (1034 sec)
gpgpu_simulation_rate = 70320 (inst/sec)
gpgpu_simulation_rate = 283 (cycle/sec)
GPGPU-Sim: synchronize waiting for inactive GPU simulation
GPGPU-Sim API: Stream Manager State
GPGPU-Sim: detected inactive GPU simulation thread

1x GPU_laplace3d: 1033420.187500 (ms) 

Copy u2 to host: 785.059021 (ms) 

1x Gold_laplace3d: 7.652000 (ms) 
 

 rms error = 0.000000 
CUDA_SAFE_CALL( cudaFree(d_u1) );
CUDA_SAFE_CALL( cudaFree(d_u2) );
free(h_u1);
free(h_u2);
free(h_u3);

Press ENTER to exit...
