

        *** GPGPU-Sim Simulator Version 3.2.2  [build 0] ***


GPGPU-Sim PTX: simulation mode 0 (can change with PTX_SIM_MODE_FUNC environment variable:
               1=functional simulation only, 0=detailed performance simulator)
GPGPU-Sim: Configuration options:

-network_mode                           1 # Interconnection network mode
-inter_config_file   config_fermi_islip.icnt # Interconnection network config file
-gpgpu_ptx_use_cuobjdump                    1 # Use cuobjdump to extract ptx and sass from binaries
-gpgpu_experimental_lib_support                    0 # Try to extract code from cuda libraries [Broken because of unknown cudaGetExportTable]
-gpgpu_ptx_convert_to_ptxplus                    0 # Convert SASS (native ISA) to ptxplus and run ptxplus
-gpgpu_ptx_force_max_capability                   20 # Force maximum compute capability
-gpgpu_ptx_inst_debug_to_file                    0 # Dump executed instructions' debug information to file
-gpgpu_ptx_inst_debug_file       inst_debug.txt # Executed instructions' debug output file
-gpgpu_ptx_inst_debug_thread_uid                    1 # Thread UID for executed instructions' debug output
-gpgpu_simd_model                       1 # 1 = post-dominator
-gpgpu_shader_core_pipeline          1536:256:32 # shader core pipeline config, i.e., {<nthread>:<warpsize>}
-gpgpu_tex_cache:l1  4:128:24,L:R:m:N:L,F:128:4,128:2 # per-shader L1 texture cache  (READ-ONLY) config  {<nsets>:<bsize>:<assoc>,<rep>:<wr>:<alloc>:<wr_alloc>,<mshr>:<N>:<merge>,<mq>:<rf>}
-gpgpu_const_cache:l1 64:64:2,L:R:f:N:L,A:2:32,4 # per-shader L1 constant memory cache  (READ-ONLY) config  {<nsets>:<bsize>:<assoc>,<rep>:<wr>:<alloc>:<wr_alloc>,<mshr>:<N>:<merge>,<mq>} 
-gpgpu_cache:il1     4:128:4,L:R:f:N:L,A:2:32,4 # shader L1 instruction cache config  {<nsets>:<bsize>:<assoc>,<rep>:<wr>:<alloc>:<wr_alloc>,<mshr>:<N>:<merge>,<mq>} 
-gpgpu_cache:dl1     32:128:4,L:L:m:N:H,A:32:8,8 # per-shader L1 data cache config  {<nsets>:<bsize>:<assoc>,<rep>:<wr>:<alloc>:<wr_alloc>,<mshr>:<N>:<merge>,<mq> | none}
-gpgpu_cache:dl1PrefL1                 none # per-shader L1 data cache config  {<nsets>:<bsize>:<assoc>,<rep>:<wr>:<alloc>:<wr_alloc>,<mshr>:<N>:<merge>,<mq> | none}
-gpgpu_cache:dl1PreShared                 none # per-shader L1 data cache config  {<nsets>:<bsize>:<assoc>,<rep>:<wr>:<alloc>:<wr_alloc>,<mshr>:<N>:<merge>,<mq> | none}
-gmem_skip_L1D                          0 # global memory access skip L1D cache (implements -Xptxas -dlcm=cg, default=no skip)
-gpgpu_perfect_mem                      0 # enable perfect memory mode (no cache miss)
-n_regfile_gating_group                    4 # group of lanes that should be read/written together)
-gpgpu_clock_gated_reg_file                    0 # enable clock gated reg file for power calculations
-gpgpu_clock_gated_lanes                    0 # enable clock gated lanes for power calculations
-gpgpu_shader_registers                32768 # Number of registers per shader core. Limits number of concurrent CTAs. (default 8192)
-gpgpu_shader_cta                       8 # Maximum number of concurrent CTAs in shader (default 8)
-gpgpu_num_cta_barriers                   16 # Maximum number of named barriers per CTA (default 16)
-gpgpu_n_clusters                      15 # number of processing clusters
-gpgpu_n_cores_per_cluster                    1 # number of simd cores per cluster
-gpgpu_n_cluster_ejection_buffer_size                    8 # number of packets in ejection buffer
-gpgpu_n_ldst_response_buffer_size                    2 # number of response packets in ld/st unit ejection buffer
-gpgpu_shmem_size                   16384 # Size of shared memory per shader core (default 16kB)
-gpgpu_shmem_size                   49152 # Size of shared memory per shader core (default 16kB)
-gpgpu_shmem_size_PrefL1                16384 # Size of shared memory per shader core (default 16kB)
-gpgpu_shmem_size_PrefShared                16384 # Size of shared memory per shader core (default 16kB)
-gpgpu_shmem_num_banks                   32 # Number of banks in the shared memory in each shader core (default 16)
-gpgpu_shmem_limited_broadcast                    0 # Limit shared memory to do one broadcast per cycle (default on)
-gpgpu_shmem_warp_parts                    1 # Number of portions a warp is divided into for shared memory bank conflict check 
-gpgpu_warpdistro_shader                   -1 # Specify which shader core to collect the warp size distribution from
-gpgpu_warp_issue_shader                    0 # Specify which shader core to collect the warp issue distribution from
-gpgpu_local_mem_map                    1 # Mapping from local memory space address to simulated GPU physical address space (default = enabled)
-gpgpu_num_reg_banks                   16 # Number of register banks (default = 8)
-gpgpu_reg_bank_use_warp_id                    0 # Use warp ID in mapping registers to banks (default = off)
-gpgpu_operand_collector_num_units_sp                    6 # number of collector units (default = 4)
-gpgpu_operand_collector_num_units_sfu                    8 # number of collector units (default = 4)
-gpgpu_operand_collector_num_units_mem                    2 # number of collector units (default = 2)
-gpgpu_operand_collector_num_units_gen                    0 # number of collector units (default = 0)
-gpgpu_operand_collector_num_in_ports_sp                    2 # number of collector unit in ports (default = 1)
-gpgpu_operand_collector_num_in_ports_sfu                    1 # number of collector unit in ports (default = 1)
-gpgpu_operand_collector_num_in_ports_mem                    1 # number of collector unit in ports (default = 1)
-gpgpu_operand_collector_num_in_ports_gen                    0 # number of collector unit in ports (default = 0)
-gpgpu_operand_collector_num_out_ports_sp                    2 # number of collector unit in ports (default = 1)
-gpgpu_operand_collector_num_out_ports_sfu                    1 # number of collector unit in ports (default = 1)
-gpgpu_operand_collector_num_out_ports_mem                    1 # number of collector unit in ports (default = 1)
-gpgpu_operand_collector_num_out_ports_gen                    0 # number of collector unit in ports (default = 0)
-gpgpu_coalesce_arch                   13 # Coalescing arch (default = 13, anything else is off for now)
-gpgpu_num_sched_per_core                    1 # Number of warp schedulers per core
-gpgpu_max_insn_issue_per_warp                    1 # Max number of instructions that can be issued per warp in one cycle by scheduler
-gpgpu_simt_core_sim_order                    1 # Select the simulation order of cores in a cluster (0=Fix, 1=Round-Robin)
-gpgpu_pipeline_widths        2,1,1,2,1,1,2 # Pipeline widths ID_OC_SP,ID_OC_SFU,ID_OC_MEM,OC_EX_SP,OC_EX_SFU,OC_EX_MEM,EX_WB
-gpgpu_num_sp_units                     2 # Number of SP units (default=1)
-gpgpu_num_sfu_units                    1 # Number of SF units (default=1)
-gpgpu_num_mem_units                    1 # Number if ldst units (default=1) WARNING: not hooked up to anything
-gpgpu_scheduler                      gto # Scheduler configuration: < lrr | gto | two_level_active > If two_level_active:<num_active_warps>:<inner_prioritization>:<outer_prioritization>For complete list of prioritization values see shader.h enum scheduler_prioritization_typeDefault: gto
-gpgpu_dram_scheduler                    1 # 0 = fifo, 1 = FR-FCFS (defaul)
-gpgpu_dram_partition_queues              8:8:8:8 # i2$:$2d:d2$:$2i
-l2_ideal                               0 # Use a ideal L2 cache that always hit
-gpgpu_cache:dl2     64:128:8,L:B:m:W:L,A:32:4,4:0,32 # unified banked L2 data cache config  {<nsets>:<bsize>:<assoc>,<rep>:<wr>:<alloc>:<wr_alloc>,<mshr>:<N>:<merge>,<mq>}
-gpgpu_cache:dl2_texture_only                    0 # L2 cache used for texture only
-gpgpu_n_mem                            6 # number of memory modules (e.g. memory controllers) in gpu
-gpgpu_n_sub_partition_per_mchannel                    2 # number of memory subpartition in each memory module
-gpgpu_n_mem_per_ctrlr                    2 # number of memory chips per memory controller
-gpgpu_memlatency_stat                   14 # track and display latency statistics 0x2 enables MC, 0x4 enables queue logs
-gpgpu_frfcfs_dram_sched_queue_size                   16 # 0 = unlimited (default); # entries per chip
-gpgpu_dram_return_queue_size                  116 # 0 = unlimited (default); # entries per chip
-gpgpu_dram_buswidth                    4 # default = 4 bytes (8 bytes per cycle at DDR)
-gpgpu_dram_burst_length                    8 # Burst length of each DRAM request (default = 4 data bus cycle)
-dram_data_command_freq_ratio                    4 # Frequency ratio between DRAM data bus and command bus (default = 2 times, i.e. DDR)
-gpgpu_dram_timing_opt nbk=16:CCD=2:RRD=6:RCD=12:RAS=28:RP=12:RC=40: CL=12:WL=4:CDLR=5:WR=12:nbkgrp=4:CCDL=3:RTPL=2 # DRAM timing parameters = {nbk:tCCD:tRRD:tRCD:tRAS:tRP:tRC:CL:WL:tCDLR:tWR:nbkgrp:tCCDL:tRTPL}
-rop_latency                          120 # ROP queue latency (default 85)
-dram_latency                         100 # DRAM latency (default 30)
-gpgpu_mem_addr_mapping dramid@8;00000000.00000000.00000000.00000000.0000RRRR.RRRRRRRR.BBBCCCCB.CCSSSSSS # mapping memory address to dram model {dramid@<start bit>;<memory address map>}
-gpgpu_mem_addr_test                    0 # run sweep test to check address mapping for aliased address
-gpgpu_mem_address_mask                    1 # 0 = old addressing mask, 1 = new addressing mask, 2 = new add. mask + flipped bank sel and chip sel bits
-gpuwattch_xml_file  gpuwattch_gtx480.xml # GPUWattch XML file
-power_simulation_enabled                    1 # Turn on power simulator (1=On, 0=Off)
-power_per_cycle_dump                    0 # Dump detailed power output each cycle
-power_trace_enabled                    0 # produce a file for the power trace (1=On, 0=Off)
-power_trace_zlevel                     6 # Compression level of the power trace output log (0=no comp, 9=highest)
-steady_power_levels_enabled                    0 # produce a file for the steady power levels (1=On, 0=Off)
-steady_state_definition                  8:4 # allowed deviation:number of samples
-gpgpu_max_cycle                        0 # terminates gpu simulation early (0 = no limit)
-gpgpu_max_insn                         0 # terminates gpu simulation early (0 = no limit)
-gpgpu_max_cta                          0 # terminates gpu simulation early (0 = no limit)
-gpgpu_runtime_stat                   500 # display runtime statistics such as dram utilization {<freq>:<flag>}
-liveness_message_freq                    1 # Minimum number of seconds between simulation liveness messages (0 = always print)
-gpgpu_flush_l1_cache                    0 # Flush L1 cache at the end of each kernel call
-gpgpu_flush_l2_cache                    0 # Flush L2 cache at the end of each kernel call
-gpgpu_deadlock_detect                    1 # Stop the simulation at deadlock (1=on (default), 0=off)
-gpgpu_ptx_instruction_classification                    0 # if enabled will classify ptx instruction types per kernel (Max 255 kernels now)
-gpgpu_ptx_sim_mode                     0 # Select between Performance (default) or Functional simulation (1)
-gpgpu_clock_domains 700.0:700.0:700.0:924.0 # Clock Domain Frequencies in MhZ {<Core Clock>:<ICNT Clock>:<L2 Clock>:<DRAM Clock>}
-gpgpu_max_concurrent_kernel                    8 # maximum kernels that can run concurrently on GPU
-gpgpu_cflog_interval                    0 # Interval between each snapshot in control flow logger
-visualizer_enabled                     0 # Turn on visualizer output (1=On, 0=Off)
-visualizer_outputfile                 NULL # Specifies the output log file for visualizer
-visualizer_zlevel                      6 # Compression level of the visualizer output log (0=no comp, 9=highest)
-trace_enabled                          0 # Turn on traces
-trace_components                    none # comma seperated list of traces to enable. Complete list found in trace_streams.tup. Default none
-trace_sampling_core                    0 # The core which is printed using CORE_DPRINTF. Default 0
-trace_sampling_memory_partition                   -1 # The memory partition which is printed using MEMPART_DPRINTF. Default -1 (i.e. all)
-enable_ptx_file_line_stats                    1 # Turn on PTX source line statistic profiling. (1 = On)
-ptx_line_stats_filename gpgpu_inst_stats.txt # Output file for PTX source line statistics.
-save_embedded_ptx                      0 # saves ptx files embedded in binary as <n>.ptx
-keep                                   0 # keep intermediate files created by GPGPU-Sim when interfacing with external programs
-gpgpu_ptx_save_converted_ptxplus                    0 # Saved converted ptxplus to a file
-ptx_opcode_latency_int         4,13,4,5,145 # Opcode latencies for integers <ADD,MAX,MUL,MAD,DIV>Default 1,1,19,25,145
-ptx_opcode_latency_fp          4,13,4,5,39 # Opcode latencies for single precision floating points <ADD,MAX,MUL,MAD,DIV>Default 1,1,1,1,30
-ptx_opcode_latency_dp         8,19,8,8,330 # Opcode latencies for double precision floating points <ADD,MAX,MUL,MAD,DIV>Default 8,8,8,8,335
-ptx_opcode_initiation_int            1,2,2,1,8 # Opcode initiation intervals for integers <ADD,MAX,MUL,MAD,DIV>Default 1,1,4,4,32
-ptx_opcode_initiation_fp            1,2,1,1,4 # Opcode initiation intervals for single precision floating points <ADD,MAX,MUL,MAD,DIV>Default 1,1,1,1,5
-ptx_opcode_initiation_dp         8,16,8,8,130 # Opcode initiation intervals for double precision floating points <ADD,MAX,MUL,MAD,DIV>Default 8,8,8,8,130
ESHA: SIMD Width was found to be : 32
DRAM Timing Options:
nbk                                    16 # number of banks
CCD                                     2 # column to column delay
RRD                                     6 # minimal delay between activation of rows in different banks
RCD                                    12 # row to column delay
RAS                                    28 # time needed to activate row
RP                                     12 # time needed to precharge (deactivate) row
RC                                     40 # row cycle time
CDLR                                    5 # switching from write to read (changes tWTR)
WR                                     12 # last data-in to row precharge
CL                                     12 # CAS latency
WL                                      4 # Write latency
nbkgrp                                  4 # number of bank groups
CCDL                                    3 # column to column delay between accesses to different bank groups
RTPL                                    2 # read to precharge delay between accesses to different bank groups
Total number of memory sub partition = 12
addr_dec_mask[CHIP]  = 0000000000000000 	high:64 low:0
addr_dec_mask[BK]    = 000000000000e100 	high:16 low:8
addr_dec_mask[ROW]   = 000000000fff0000 	high:28 low:16
addr_dec_mask[COL]   = 0000000000001eff 	high:13 low:0
addr_dec_mask[BURST] = 000000000000003f 	high:6 low:0
sub_partition_id_mask = 0000000000000100
GPGPU-Sim uArch: clock freqs: 700000000.000000:700000000.000000:700000000.000000:924000000.000000
GPGPU-Sim uArch: clock periods: 0.00000000142857142857:0.00000000142857142857:0.00000000142857142857:0.00000000108225108225
ESHA_CHANGED: in shader config simd is  32 
*** Initializing Memory Statistics ***
GPGPU-Sim uArch: interconnect node map (shaderID+MemID to icntID)
GPGPU-Sim uArch: Memory nodes ID start from index: 15
GPGPU-Sim uArch:    0   1   2   3   4
GPGPU-Sim uArch:    5   6   7   8   9
GPGPU-Sim uArch:   10  11  12  13  14
GPGPU-Sim uArch:   15  16  17  18  19
GPGPU-Sim uArch:   20  21  22  23  24
GPGPU-Sim uArch:   25  26
GPGPU-Sim uArch: interconnect node reverse map (icntID to shaderID+MemID)
GPGPU-Sim uArch: Memory nodes start from ID: 15
GPGPU-Sim uArch:    0   1   2   3   4
GPGPU-Sim uArch:    5   6   7   8   9
GPGPU-Sim uArch:   10  11  12  13  14
GPGPU-Sim uArch:   15  16  17  18  19
GPGPU-Sim uArch:   20  21  22  23  24
GPGPU-Sim uArch:   25  26
7c3d5ae41cea1e926c25170af925835d  /home/kishore/project_source/gpu_class_proj/gpgpusim-benchmarks-master/bin/release/LPS
GPGPU-Sim uArch: performance model initialization complete.
GPGPU-Sim PTX: __cudaRegisterFatBinary, fat_cubin_handle = 1, filename=laplace3d.cu
self exe links to: /home/kishore/project_source/gpu_class_proj/gpgpusim-benchmarks-master/bin/release/LPS
Running md5sum using "md5sum /home/kishore/project_source/gpu_class_proj/gpgpusim-benchmarks-master/bin/release/LPS "
Running cuobjdump using "$CUDA_INSTALL_PATH/bin/cuobjdump -ptx -elf -sass /home/kishore/project_source/gpu_class_proj/gpgpusim-benchmarks-master/bin/release/LPS > _cuobjdump_complete_output_uzICcT"
Parsing file _cuobjdump_complete_output_uzICcT
######### cuobjdump parser ########
## Adding new section PTX
Adding ptx filename: _cuobjdump_1.ptx
Adding arch: sm_10
Adding identifier: laplace3d.cu
## Adding new section ELF
Adding arch: sm_10
Adding identifier: laplace3d.cu
## Adding new section ELF
Adding arch: sm_20
Adding identifier: laplace3d.cu
## Adding new section PTX
Adding ptx filename: _cuobjdump_2.ptx
Adding arch: sm_20
Adding identifier: laplace3d.cu
Done parsing!!!
GPGPU-Sim PTX: __cudaRegisterFunction _Z13GPU_laplace3diiiiPfS_ : hostFun 0x0x403bc0, fat_cubin_handle = 1
GPGPU-Sim PTX: allocating shared region for "__cuda___cuda_local_var_34196_33_non_const_u132" from 0x0 to 0x990 (shared memory space)
GPGPU-Sim PTX: instruction assembly for function '_Z13GPU_laplace3diiiiPfS_'...   done.
GPGPU-Sim PTX: finding reconvergence points for '_Z13GPU_laplace3diiiiPfS_'...
GPGPU-Sim PTX: Finding dominators for '_Z13GPU_laplace3diiiiPfS_'...
GPGPU-Sim PTX: Finding immediate dominators for '_Z13GPU_laplace3diiiiPfS_'...
GPGPU-Sim PTX: Finding postdominators for '_Z13GPU_laplace3diiiiPfS_'...
GPGPU-Sim PTX: Finding immediate postdominators for '_Z13GPU_laplace3diiiiPfS_'...
GPGPU-Sim PTX: pre-decoding instructions for '_Z13GPU_laplace3diiiiPfS_'...
GPGPU-Sim PTX: reconvergence points for _Z13GPU_laplace3diiiiPfS_...
GPGPU-Sim PTX:  1 (potential) branch divergence @  PC=0x060 (_1.ptx:82) @!%p1 bra $Lt_0_14338;
GPGPU-Sim PTX:    immediate post dominator      @  PC=0x230 (_1.ptx:154) add.s32 %r57, %r37, %r12;
GPGPU-Sim PTX:  2 (potential) branch divergence @  PC=0x080 (_1.ptx:86) @%p2 bra $Lt_0_14850;
GPGPU-Sim PTX:    immediate post dominator      @  PC=0x120 (_1.ptx:113) add.s32 %r30, %r16, 1;
GPGPU-Sim PTX:  3 (potential) branch divergence @  PC=0x0a0 (_1.ptx:92) bra.uni $Lt_0_14594;
GPGPU-Sim PTX:    immediate post dominator      @  PC=0x120 (_1.ptx:113) add.s32 %r30, %r16, 1;
GPGPU-Sim PTX:  4 (potential) branch divergence @  PC=0x200 (_1.ptx:145) bra.uni $Lt_0_14082;
GPGPU-Sim PTX:    immediate post dominator      @  PC=0x230 (_1.ptx:154) add.s32 %r57, %r37, %r12;
GPGPU-Sim PTX:  5 (potential) branch divergence @  PC=0x290 (_1.ptx:166) @%p5 bra $Lt_0_15106;
GPGPU-Sim PTX:    immediate post dominator      @  PC=0x308 (_1.ptx:183) mov.u64 %rd1, __cuda___cuda_local_var_34196_33_non_const_u132;
GPGPU-Sim PTX:  6 (potential) branch divergence @  PC=0x320 (_1.ptx:186) @!%p6 bra $Lt_0_15618;
GPGPU-Sim PTX:    immediate post dominator      @  PC=0x380 (_1.ptx:200) ld.param.s32 %r73, [__cudaparm__Z13GPU_laplace3diiiiPfS__NZ];
GPGPU-Sim PTX:  7 (potential) branch divergence @  PC=0x398 (_1.ptx:203) @%p7 bra $Lt_0_16130;
GPGPU-Sim PTX:    immediate post dominator      @  PC=0x6d8 (_1.ptx:335) exit;
GPGPU-Sim PTX:  8 (potential) branch divergence @  PC=0x408 (_1.ptx:219) @%p8 bra $Lt_0_17410;
GPGPU-Sim PTX:    immediate post dominator      @  PC=0x4a0 (_1.ptx:245) @!%p6 bra $Lt_0_18434;
GPGPU-Sim PTX:  9 (potential) branch divergence @  PC=0x468 (_1.ptx:235) @%p9 bra $Lt_0_17410;
GPGPU-Sim PTX:    immediate post dominator      @  PC=0x4a0 (_1.ptx:245) @!%p6 bra $Lt_0_18434;
GPGPU-Sim PTX: 10 (potential) branch divergence @  PC=0x4a0 (_1.ptx:245) @!%p6 bra $Lt_0_18434;
GPGPU-Sim PTX:    immediate post dominator      @  PC=0x548 (_1.ptx:273) bar.sync 0;
GPGPU-Sim PTX: 11 (potential) branch divergence @  PC=0x510 (_1.ptx:262) @%p10 bra $Lt_0_18434;
GPGPU-Sim PTX:    immediate post dominator      @  PC=0x548 (_1.ptx:273) bar.sync 0;
GPGPU-Sim PTX: 12 (potential) branch divergence @  PC=0x560 (_1.ptx:276) @%p11 bra $Lt_0_18946;
GPGPU-Sim PTX:    immediate post dominator      @  PC=0x6b8 (_1.ptx:329) bar.sync 0;
GPGPU-Sim PTX: 13 (potential) branch divergence @  PC=0x578 (_1.ptx:280) @%p12 bra $Lt_0_20738;
GPGPU-Sim PTX:    immediate post dominator      @  PC=0x688 (_1.ptx:321) ld.param.u64 %rd35, [__cudaparm__Z13GPU_laplace3diiiiPfS__d_u2];
GPGPU-Sim PTX: 14 (potential) branch divergence @  PC=0x588 (_1.ptx:282) @%p13 bra $Lt_0_20738;
GPGPU-Sim PTX:    immediate post dominator      @  PC=0x688 (_1.ptx:321) ld.param.u64 %rd35, [__cudaparm__Z13GPU_laplace3diiiiPfS__d_u2];
GPGPU-Sim PTX: 15 (potential) branch divergence @  PC=0x5a0 (_1.ptx:285) @%p14 bra $Lt_0_20738;
GPGPU-Sim PTX:    immediate post dominator      @  PC=0x688 (_1.ptx:321) ld.param.u64 %rd35, [__cudaparm__Z13GPU_laplace3diiiiPfS__d_u2];
GPGPU-Sim PTX: 16 (potential) branch divergence @  PC=0x5b0 (_1.ptx:287) @%p15 bra $Lt_0_20738;
GPGPU-Sim PTX:    immediate post dominator      @  PC=0x688 (_1.ptx:321) ld.param.u64 %rd35, [__cudaparm__Z13GPU_laplace3diiiiPfS__d_u2];
GPGPU-Sim PTX: 17 (potential) branch divergence @  PC=0x5c8 (_1.ptx:290) @%p16 bra $Lt_0_20738;
GPGPU-Sim PTX:    immediate post dominator      @  PC=0x688 (_1.ptx:321) ld.param.u64 %rd35, [__cudaparm__Z13GPU_laplace3diiiiPfS__d_u2];
GPGPU-Sim PTX: 18 (potential) branch divergence @  PC=0x5d8 (_1.ptx:292) @%p17 bra $L_0_12546;
GPGPU-Sim PTX:    immediate post dominator      @  PC=0x688 (_1.ptx:321) ld.param.u64 %rd35, [__cudaparm__Z13GPU_laplace3diiiiPfS__d_u2];
GPGPU-Sim PTX: 19 (potential) branch divergence @  PC=0x600 (_1.ptx:300) bra.uni $L_0_12290;
GPGPU-Sim PTX:    immediate post dominator      @  PC=0x688 (_1.ptx:321) ld.param.u64 %rd35, [__cudaparm__Z13GPU_laplace3diiiiPfS__d_u2];
GPGPU-Sim PTX: 20 (potential) branch divergence @  PC=0x6d0 (_1.ptx:332) @%p18 bra $Lt_0_16642;
GPGPU-Sim PTX:    immediate post dominator      @  PC=0x6d8 (_1.ptx:335) exit;
GPGPU-Sim PTX: ... end of reconvergence points for _Z13GPU_laplace3diiiiPfS_
GPGPU-Sim PTX: ... done pre-decoding instructions for '_Z13GPU_laplace3diiiiPfS_'.
GPGPU-Sim PTX: finished parsing EMBEDDED .ptx file _1.ptx
Adding _cuobjdump_2.ptx with cubin handle 1
GPGPU-Sim PTX: extracting embedded .ptx to temporary file "_ptx_CyJfcg"
Running: cat _ptx_CyJfcg | sed 's/.version 1.5/.version 1.4/' | sed 's/, texmode_independent//' | sed 's/\(\.extern \.const\[1\] .b8 \w\+\)\[\]/\1\[1\]/' | sed 's/const\[.\]/const\[0\]/g' > _ptx2_UUjUbD
GPGPU-Sim PTX: generating ptxinfo using "$CUDA_INSTALL_PATH/bin/ptxas --gpu-name=sm_20 -v _ptx2_UUjUbD --output-file  /dev/null 2> _ptx_CyJfcginfo"
GPGPU-Sim PTX: Kernel '_Z13GPU_laplace3diiiiPfS_' : regs=17, lmem=0, smem=2448, cmem=64
GPGPU-Sim PTX: removing ptxinfo using "rm -f _ptx_CyJfcg _ptx2_UUjUbD _ptx_CyJfcginfo"
GPGPU-Sim PTX: loading globals with explicit initializers... 
GPGPU-Sim PTX: finished loading globals (0 bytes total).
GPGPU-Sim PTX: loading constants with explicit initializers...  done.

Grid dimensions: 100 x 100 x 100
GPGPU-Sim PTX: cudaMallocPitch (width = 400)
GPGPU-Sim PTX: cudaMallocPitch (width = 400)
GPGPU-Sim: synchronize waiting for inactive GPU simulation
GPGPU-Sim API: Stream Manager State
GPGPU-Sim: detected inactive GPU simulation thread

Copy u1 to device: 523.752014 (ms) 

 dimGrid  = 4 25 1 
 dimBlock = 32 4 1 
GPGPU-Sim: synchronize waiting for inactive GPU simulation
GPGPU-Sim API: Stream Manager State
GPGPU-Sim: detected inactive GPU simulation thread

GPGPU-Sim PTX: cudaLaunch for 0x0x403bc0 (mode=performance simulation) on stream 0
GPGPU-Sim PTX: pushing kernel '_Z13GPU_laplace3diiiiPfS_' to stream 0, gridDim= (4,25,1) blockDim = (32,4,1) 
kernel '_Z13GPU_laplace3diiiiPfS_' transfer to GPU hardware scheduler
GPGPU-Sim uArch: Shader 1 bind to kernel 1 '_Z13GPU_laplace3diiiiPfS_'
GPGPU-Sim uArch: CTA/core = 6, limited by: threads regs
GPGPU-Sim uArch: core:  1, cta: 0 initialized @(1,0)
GPGPU-Sim uArch: Shader 2 bind to kernel 1 '_Z13GPU_laplace3diiiiPfS_'
GPGPU-Sim uArch: core:  2, cta: 0 initialized @(1,0)
GPGPU-Sim uArch: Shader 3 bind to kernel 1 '_Z13GPU_laplace3diiiiPfS_'
GPGPU-Sim uArch: core:  3, cta: 0 initialized @(1,0)
GPGPU-Sim uArch: Shader 4 bind to kernel 1 '_Z13GPU_laplace3diiiiPfS_'
GPGPU-Sim uArch: core:  4, cta: 0 initialized @(1,0)
GPGPU-Sim uArch: Shader 5 bind to kernel 1 '_Z13GPU_laplace3diiiiPfS_'
GPGPU-Sim uArch: core:  5, cta: 0 initialized @(1,0)
GPGPU-Sim uArch: Shader 6 bind to kernel 1 '_Z13GPU_laplace3diiiiPfS_'
GPGPU-Sim uArch: core:  6, cta: 0 initialized @(1,0)
GPGPU-Sim uArch: Shader 7 bind to kernel 1 '_Z13GPU_laplace3diiiiPfS_'
GPGPU-Sim uArch: core:  7, cta: 0 initialized @(1,0)
GPGPU-Sim uArch: Shader 8 bind to kernel 1 '_Z13GPU_laplace3diiiiPfS_'
GPGPU-Sim uArch: core:  8, cta: 0 initialized @(1,0)
GPGPU-Sim uArch: Shader 9 bind to kernel 1 '_Z13GPU_laplace3diiiiPfS_'
GPGPU-Sim uArch: core:  9, cta: 0 initialized @(1,0)
GPGPU-Sim uArch: Shader 10 bind to kernel 1 '_Z13GPU_laplace3diiiiPfS_'
GPGPU-Sim uArch: core: 10, cta: 0 initialized @(1,0)
GPGPU-Sim uArch: Shader 11 bind to kernel 1 '_Z13GPU_laplace3diiiiPfS_'
GPGPU-Sim uArch: core: 11, cta: 0 initialized @(1,0)
GPGPU-Sim uArch: Shader 12 bind to kernel 1 '_Z13GPU_laplace3diiiiPfS_'
GPGPU-Sim uArch: core: 12, cta: 0 initialized @(1,0)
GPGPU-Sim uArch: Shader 13 bind to kernel 1 '_Z13GPU_laplace3diiiiPfS_'
GPGPU-Sim uArch: core: 13, cta: 0 initialized @(1,0)
GPGPU-Sim uArch: Shader 14 bind to kernel 1 '_Z13GPU_laplace3diiiiPfS_'
GPGPU-Sim uArch: core: 14, cta: 0 initialized @(1,0)
GPGPU-Sim uArch: Shader 0 bind to kernel 1 '_Z13GPU_laplace3diiiiPfS_'
GPGPU-Sim uArch: core:  0, cta: 0 initialized @(1,0)
GPGPU-Sim uArch: core:  1, cta: 1 initialized @(2,0)
GPGPU-Sim uArch: core:  2, cta: 1 initialized @(2,0)
GPGPU-Sim uArch: core:  3, cta: 1 initialized @(2,0)
GPGPU-Sim uArch: core:  4, cta: 1 initialized @(2,0)
GPGPU-Sim uArch: core:  5, cta: 1 initialized @(2,0)
GPGPU-Sim uArch: core:  6, cta: 1 initialized @(2,0)
GPGPU-Sim uArch: core:  7, cta: 1 initialized @(2,0)
GPGPU-Sim uArch: core:  8, cta: 1 initialized @(2,0)
GPGPU-Sim uArch: core:  9, cta: 1 initialized @(2,0)
GPGPU-Sim uArch: core: 10, cta: 1 initialized @(2,0)
GPGPU-Sim uArch: core: 11, cta: 1 initialized @(2,0)
GPGPU-Sim uArch: core: 12, cta: 1 initialized @(2,0)
GPGPU-Sim uArch: core: 13, cta: 1 initialized @(2,0)
GPGPU-Sim uArch: core: 14, cta: 1 initialized @(2,0)
GPGPU-Sim uArch: core:  0, cta: 1 initialized @(2,0)
GPGPU-Sim uArch: core:  1, cta: 2 initialized @(3,0)
GPGPU-Sim uArch: core:  2, cta: 2 initialized @(3,0)
GPGPU-Sim uArch: core:  3, cta: 2 initialized @(3,0)
GPGPU-Sim uArch: core:  4, cta: 2 initialized @(3,0)
GPGPU-Sim uArch: core:  5, cta: 2 initialized @(3,0)
GPGPU-Sim uArch: core:  6, cta: 2 initialized @(3,0)
GPGPU-Sim uArch: core:  7, cta: 2 initialized @(3,0)
GPGPU-Sim uArch: core:  8, cta: 2 initialized @(3,0)
GPGPU-Sim uArch: core:  9, cta: 2 initialized @(3,0)
GPGPU-Sim uArch: core: 10, cta: 2 initialized @(3,0)
GPGPU-Sim uArch: core: 11, cta: 2 initialized @(3,0)
GPGPU-Sim uArch: core: 12, cta: 2 initialized @(3,0)
GPGPU-Sim uArch: core: 13, cta: 2 initialized @(3,0)
GPGPU-Sim uArch: core: 14, cta: 2 initialized @(3,0)
GPGPU-Sim uArch: core:  0, cta: 2 initialized @(3,0)
GPGPU-Sim uArch: core:  1, cta: 3 initialized @(4,0)
GPGPU-Sim uArch: core:  2, cta: 3 initialized @(4,0)
GPGPU-Sim uArch: core:  3, cta: 3 initialized @(4,0)
GPGPU-Sim uArch: core:  4, cta: 3 initialized @(4,0)
GPGPU-Sim uArch: core:  5, cta: 3 initialized @(4,0)
GPGPU-Sim uArch: core:  6, cta: 3 initialized @(4,0)
GPGPU-Sim uArch: core:  7, cta: 3 initialized @(4,0)
GPGPU-Sim uArch: core:  8, cta: 3 initialized @(4,0)
GPGPU-Sim uArch: core:  9, cta: 3 initialized @(4,0)
GPGPU-Sim uArch: core: 10, cta: 3 initialized @(4,0)
GPGPU-Sim uArch: core: 11, cta: 3 initialized @(4,0)
GPGPU-Sim uArch: core: 12, cta: 3 initialized @(4,0)
GPGPU-Sim uArch: core: 13, cta: 3 initialized @(4,0)
GPGPU-Sim uArch: core: 14, cta: 3 initialized @(4,0)
GPGPU-Sim uArch: core:  0, cta: 3 initialized @(4,0)
GPGPU-Sim uArch: core:  1, cta: 4 initialized @(5,0)
GPGPU-Sim uArch: core:  2, cta: 4 initialized @(5,0)
GPGPU-Sim uArch: core:  3, cta: 4 initialized @(5,0)
GPGPU-Sim uArch: core:  4, cta: 4 initialized @(5,0)
GPGPU-Sim uArch: core:  5, cta: 4 initialized @(5,0)
GPGPU-Sim uArch: core:  6, cta: 4 initialized @(5,0)
GPGPU-Sim uArch: core:  7, cta: 4 initialized @(5,0)
GPGPU-Sim uArch: core:  8, cta: 4 initialized @(5,0)
GPGPU-Sim uArch: core:  9, cta: 4 initialized @(5,0)
GPGPU-Sim uArch: core: 10, cta: 4 initialized @(5,0)
GPGPU-Sim uArch: core: 11, cta: 4 initialized @(5,0)
GPGPU-Sim uArch: core: 12, cta: 4 initialized @(5,0)
GPGPU-Sim uArch: core: 13, cta: 4 initialized @(5,0)
GPGPU-Sim uArch: core: 14, cta: 4 initialized @(5,0)
GPGPU-Sim uArch: core:  0, cta: 4 initialized @(5,0)
GPGPU-Sim uArch: core:  1, cta: 5 initialized @(6,0)
GPGPU-Sim uArch: core:  2, cta: 5 initialized @(6,0)
GPGPU-Sim uArch: core:  3, cta: 5 initialized @(6,0)
GPGPU-Sim uArch: core:  4, cta: 5 initialized @(6,0)
GPGPU-Sim uArch: core:  5, cta: 5 initialized @(6,0)
GPGPU-Sim uArch: core:  6, cta: 5 initialized @(6,0)
GPGPU-Sim uArch: core:  7, cta: 5 initialized @(6,0)
GPGPU-Sim uArch: core:  8, cta: 5 initialized @(6,0)
GPGPU-Sim uArch: core:  9, cta: 5 initialized @(6,0)
GPGPU-Sim uArch: core: 10, cta: 5 initialized @(6,0)
GPGPU-Sim uArch: core: 11, cta: 5 initialized @(6,0)
GPGPU-Sim uArch: core: 12, cta: 5 initialized @(6,0)
GPGPU-Sim uArch: core: 13, cta: 5 initialized @(6,0)
GPGPU-Sim uArch: core: 14, cta: 5 initialized @(6,0)
GPGPU-Sim uArch: core:  0, cta: 5 initialized @(6,0)
GPGPU-Sim PTX: 100000 instructions simulated : ctaid=(1,9,0) tid=(31,0,0)
GPGPU-Sim uArch: cycles simulated: 500  inst.: 108360 (ipc=216.7) sim_rate=36120 (inst/sec) elapsed = 0:0:00:03 / Tue May 12 17:42:59 2015
GPGPU-Sim PTX: 200000 instructions simulated : ctaid=(3,21,0) tid=(11,0,0)
GPGPU-Sim uArch: cycles simulated: 1000  inst.: 193848 (ipc=193.8) sim_rate=48462 (inst/sec) elapsed = 0:0:00:04 / Tue May 12 17:43:00 2015
GPGPU-Sim PTX: 300000 instructions simulated : ctaid=(1,12,0) tid=(15,1,0)
GPGPU-Sim uArch: cycles simulated: 1500  inst.: 309240 (ipc=206.2) sim_rate=51540 (inst/sec) elapsed = 0:0:00:06 / Tue May 12 17:43:02 2015
GPGPU-Sim PTX: 400000 instructions simulated : ctaid=(2,5,0) tid=(3,2,0)
GPGPU-Sim PTX: 500000 instructions simulated : ctaid=(0,3,0) tid=(19,3,0)
GPGPU-Sim uArch: cycles simulated: 2000  inst.: 540720 (ipc=270.4) sim_rate=60080 (inst/sec) elapsed = 0:0:00:09 / Tue May 12 17:43:05 2015
GPGPU-Sim PTX: 600000 instructions simulated : ctaid=(1,15,0) tid=(23,2,0)
GPGPU-Sim PTX: 700000 instructions simulated : ctaid=(2,10,0) tid=(23,3,0)
GPGPU-Sim uArch: cycles simulated: 2500  inst.: 676240 (ipc=270.5) sim_rate=61476 (inst/sec) elapsed = 0:0:00:11 / Tue May 12 17:43:07 2015
GPGPU-Sim PTX: 800000 instructions simulated : ctaid=(2,19,0) tid=(7,2,0)
GPGPU-Sim uArch: cycles simulated: 3000  inst.: 771478 (ipc=257.2) sim_rate=59344 (inst/sec) elapsed = 0:0:00:13 / Tue May 12 17:43:09 2015
GPGPU-Sim PTX: 900000 instructions simulated : ctaid=(2,13,0) tid=(11,1,0)
GPGPU-Sim PTX: 1000000 instructions simulated : ctaid=(3,20,0) tid=(7,2,0)
GPGPU-Sim uArch: cycles simulated: 3500  inst.: 964208 (ipc=275.5) sim_rate=60263 (inst/sec) elapsed = 0:0:00:16 / Tue May 12 17:43:12 2015
GPGPU-Sim PTX: 1100000 instructions simulated : ctaid=(1,2,0) tid=(23,2,0)
GPGPU-Sim uArch: cycles simulated: 4000  inst.: 1113104 (ipc=278.3) sim_rate=61839 (inst/sec) elapsed = 0:0:00:18 / Tue May 12 17:43:14 2015
GPGPU-Sim PTX: 1200000 instructions simulated : ctaid=(3,6,0) tid=(1,0,0)
GPGPU-Sim uArch: cycles simulated: 4500  inst.: 1143390 (ipc=254.1) sim_rate=60178 (inst/sec) elapsed = 0:0:00:19 / Tue May 12 17:43:15 2015
GPGPU-Sim PTX: 1300000 instructions simulated : ctaid=(2,21,0) tid=(14,1,0)
GPGPU-Sim uArch: cycles simulated: 5000  inst.: 1250510 (ipc=250.1) sim_rate=59548 (inst/sec) elapsed = 0:0:00:21 / Tue May 12 17:43:17 2015
GPGPU-Sim PTX: 1400000 instructions simulated : ctaid=(2,11,0) tid=(3,0,0)
GPGPU-Sim uArch: cycles simulated: 5500  inst.: 1355860 (ipc=246.5) sim_rate=58950 (inst/sec) elapsed = 0:0:00:23 / Tue May 12 17:43:19 2015
GPGPU-Sim PTX: 1500000 instructions simulated : ctaid=(0,10,0) tid=(23,3,0)
GPGPU-Sim PTX: 1600000 instructions simulated : ctaid=(1,12,0) tid=(25,1,0)
GPGPU-Sim PTX: 1700000 instructions simulated : ctaid=(2,21,0) tid=(25,2,0)
GPGPU-Sim uArch: cycles simulated: 6000  inst.: 1571754 (ipc=262.0) sim_rate=60452 (inst/sec) elapsed = 0:0:00:26 / Tue May 12 17:43:22 2015
GPGPU-Sim PTX: 1800000 instructions simulated : ctaid=(0,22,0) tid=(9,1,0)
GPGPU-Sim uArch: cycles simulated: 6500  inst.: 1662122 (ipc=255.7) sim_rate=59361 (inst/sec) elapsed = 0:0:00:28 / Tue May 12 17:43:24 2015
GPGPU-Sim uArch: cycles simulated: 7000  inst.: 1663206 (ipc=237.6) sim_rate=57351 (inst/sec) elapsed = 0:0:00:29 / Tue May 12 17:43:25 2015
GPGPU-Sim PTX: 1900000 instructions simulated : ctaid=(1,17,0) tid=(3,2,0)
GPGPU-Sim uArch: cycles simulated: 7500  inst.: 1762072 (ipc=234.9) sim_rate=56841 (inst/sec) elapsed = 0:0:00:31 / Tue May 12 17:43:27 2015
GPGPU-Sim PTX: 2000000 instructions simulated : ctaid=(0,12,0) tid=(13,1,0)
GPGPU-Sim PTX: 2100000 instructions simulated : ctaid=(0,15,0) tid=(7,0,0)
GPGPU-Sim PTX: 2200000 instructions simulated : ctaid=(2,2,0) tid=(27,0,0)
GPGPU-Sim PTX: 2300000 instructions simulated : ctaid=(1,21,0) tid=(15,3,0)
GPGPU-Sim uArch: cycles simulated: 8000  inst.: 2130444 (ipc=266.3) sim_rate=59179 (inst/sec) elapsed = 0:0:00:36 / Tue May 12 17:43:32 2015
GPGPU-Sim PTX: 2400000 instructions simulated : ctaid=(2,16,0) tid=(1,3,0)
GPGPU-Sim PTX: 2500000 instructions simulated : ctaid=(1,21,0) tid=(3,3,0)
GPGPU-Sim uArch: cycles simulated: 8500  inst.: 2307740 (ipc=271.5) sim_rate=59172 (inst/sec) elapsed = 0:0:00:39 / Tue May 12 17:43:35 2015
GPGPU-Sim uArch: cycles simulated: 9000  inst.: 2355018 (ipc=261.7) sim_rate=57439 (inst/sec) elapsed = 0:0:00:41 / Tue May 12 17:43:37 2015
GPGPU-Sim PTX: 2600000 instructions simulated : ctaid=(0,11,0) tid=(31,0,0)
GPGPU-Sim PTX: 2700000 instructions simulated : ctaid=(0,22,0) tid=(3,0,0)
GPGPU-Sim PTX: 2800000 instructions simulated : ctaid=(0,2,0) tid=(21,3,0)
GPGPU-Sim uArch: cycles simulated: 9500  inst.: 2578066 (ipc=271.4) sim_rate=58592 (inst/sec) elapsed = 0:0:00:44 / Tue May 12 17:43:40 2015
GPGPU-Sim PTX: 2900000 instructions simulated : ctaid=(1,4,0) tid=(17,2,0)
GPGPU-Sim PTX: 3000000 instructions simulated : ctaid=(0,3,0) tid=(5,3,0)
GPGPU-Sim PTX: 3100000 instructions simulated : ctaid=(2,18,0) tid=(1,0,0)
GPGPU-Sim PTX: 3200000 instructions simulated : ctaid=(1,18,0) tid=(14,0,0)
GPGPU-Sim uArch: cycles simulated: 10000  inst.: 2958794 (ipc=295.9) sim_rate=59175 (inst/sec) elapsed = 0:0:00:50 / Tue May 12 17:43:46 2015
GPGPU-Sim PTX: 3300000 instructions simulated : ctaid=(0,1,0) tid=(25,2,0)
GPGPU-Sim uArch: cycles simulated: 10500  inst.: 3015682 (ipc=287.2) sim_rate=59131 (inst/sec) elapsed = 0:0:00:51 / Tue May 12 17:43:47 2015
GPGPU-Sim PTX: 3400000 instructions simulated : ctaid=(1,1,0) tid=(9,0,0)
GPGPU-Sim PTX: 3500000 instructions simulated : ctaid=(0,12,0) tid=(12,2,0)
GPGPU-Sim uArch: cycles simulated: 11000  inst.: 3196299 (ipc=290.6) sim_rate=59190 (inst/sec) elapsed = 0:0:00:54 / Tue May 12 17:43:50 2015
GPGPU-Sim PTX: 3600000 instructions simulated : ctaid=(0,17,0) tid=(3,2,0)
GPGPU-Sim PTX: 3700000 instructions simulated : ctaid=(0,16,0) tid=(30,2,0)
GPGPU-Sim PTX: 3800000 instructions simulated : ctaid=(2,10,0) tid=(13,0,0)
GPGPU-Sim PTX: 3900000 instructions simulated : ctaid=(2,13,0) tid=(3,0,0)
GPGPU-Sim uArch: cycles simulated: 11500  inst.: 3608075 (ipc=313.7) sim_rate=60134 (inst/sec) elapsed = 0:0:01:00 / Tue May 12 17:43:56 2015
GPGPU-Sim PTX: 4000000 instructions simulated : ctaid=(1,1,0) tid=(22,1,0)
GPGPU-Sim uArch: cycles simulated: 12000  inst.: 3671614 (ipc=306.0) sim_rate=59219 (inst/sec) elapsed = 0:0:01:02 / Tue May 12 17:43:58 2015
GPGPU-Sim PTX: 4100000 instructions simulated : ctaid=(2,12,0) tid=(13,2,0)
GPGPU-Sim PTX: 4200000 instructions simulated : ctaid=(1,16,0) tid=(19,2,0)
GPGPU-Sim uArch: cycles simulated: 12500  inst.: 3876732 (ipc=310.1) sim_rate=59642 (inst/sec) elapsed = 0:0:01:05 / Tue May 12 17:44:01 2015
GPGPU-Sim PTX: 4300000 instructions simulated : ctaid=(2,4,0) tid=(24,1,0)
GPGPU-Sim PTX: 4400000 instructions simulated : ctaid=(0,6,0) tid=(2,2,0)
GPGPU-Sim PTX: 4500000 instructions simulated : ctaid=(2,6,0) tid=(17,3,0)
GPGPU-Sim PTX: 4600000 instructions simulated : ctaid=(0,10,0) tid=(9,2,0)
GPGPU-Sim PTX: 4700000 instructions simulated : ctaid=(0,13,0) tid=(29,0,0)
GPGPU-Sim uArch: cycles simulated: 13000  inst.: 4268444 (ipc=328.3) sim_rate=60118 (inst/sec) elapsed = 0:0:01:11 / Tue May 12 17:44:07 2015
GPGPU-Sim PTX: 4800000 instructions simulated : ctaid=(2,14,0) tid=(27,1,0)
GPGPU-Sim uArch: cycles simulated: 13500  inst.: 4343082 (ipc=321.7) sim_rate=60320 (inst/sec) elapsed = 0:0:01:12 / Tue May 12 17:44:08 2015
GPGPU-Sim PTX: 4900000 instructions simulated : ctaid=(2,1,0) tid=(11,1,0)
GPGPU-Sim PTX: 5000000 instructions simulated : ctaid=(2,13,0) tid=(5,1,0)
GPGPU-Sim uArch: cycles simulated: 14000  inst.: 4533344 (ipc=323.8) sim_rate=59649 (inst/sec) elapsed = 0:0:01:16 / Tue May 12 17:44:12 2015
GPGPU-Sim PTX: 5100000 instructions simulated : ctaid=(1,15,0) tid=(19,3,0)
GPGPU-Sim PTX: 5200000 instructions simulated : ctaid=(1,7,0) tid=(6,1,0)
GPGPU-Sim PTX: 5300000 instructions simulated : ctaid=(1,9,0) tid=(31,3,0)
GPGPU-Sim PTX: 5400000 instructions simulated : ctaid=(1,19,0) tid=(18,1,0)
GPGPU-Sim uArch: cycles simulated: 14500  inst.: 4924366 (ipc=339.6) sim_rate=60794 (inst/sec) elapsed = 0:0:01:21 / Tue May 12 17:44:17 2015
GPGPU-Sim PTX: 5500000 instructions simulated : ctaid=(0,17,0) tid=(25,0,0)
GPGPU-Sim uArch: cycles simulated: 15000  inst.: 4995574 (ipc=333.0) sim_rate=60187 (inst/sec) elapsed = 0:0:01:23 / Tue May 12 17:44:19 2015
GPGPU-Sim PTX: 5600000 instructions simulated : ctaid=(1,2,0) tid=(1,0,0)
GPGPU-Sim PTX: 5700000 instructions simulated : ctaid=(3,8,0) tid=(21,0,0)
GPGPU-Sim uArch: cycles simulated: 15500  inst.: 5170702 (ipc=333.6) sim_rate=60124 (inst/sec) elapsed = 0:0:01:26 / Tue May 12 17:44:22 2015
GPGPU-Sim PTX: 5800000 instructions simulated : ctaid=(2,17,0) tid=(30,1,0)
GPGPU-Sim PTX: 5900000 instructions simulated : ctaid=(0,12,0) tid=(6,3,0)
GPGPU-Sim PTX: 6000000 instructions simulated : ctaid=(2,13,0) tid=(24,3,0)
GPGPU-Sim PTX: 6100000 instructions simulated : ctaid=(2,18,0) tid=(11,0,0)
GPGPU-Sim PTX: 6200000 instructions simulated : ctaid=(0,10,0) tid=(19,0,0)
GPGPU-Sim uArch: cycles simulated: 16000  inst.: 5572592 (ipc=348.3) sim_rate=60571 (inst/sec) elapsed = 0:0:01:32 / Tue May 12 17:44:28 2015
GPGPU-Sim uArch: cycles simulated: 16500  inst.: 5651840 (ipc=342.5) sim_rate=60772 (inst/sec) elapsed = 0:0:01:33 / Tue May 12 17:44:29 2015
GPGPU-Sim PTX: 6300000 instructions simulated : ctaid=(1,1,0) tid=(21,2,0)
GPGPU-Sim PTX: 6400000 instructions simulated : ctaid=(1,7,0) tid=(1,3,0)
GPGPU-Sim uArch: cycles simulated: 17000  inst.: 5781570 (ipc=340.1) sim_rate=60224 (inst/sec) elapsed = 0:0:01:36 / Tue May 12 17:44:32 2015
GPGPU-Sim PTX: 6500000 instructions simulated : ctaid=(2,19,0) tid=(9,0,0)
GPGPU-Sim PTX: 6600000 instructions simulated : ctaid=(3,21,0) tid=(17,2,0)
GPGPU-Sim PTX: 6700000 instructions simulated : ctaid=(2,5,0) tid=(24,3,0)
GPGPU-Sim PTX: 6800000 instructions simulated : ctaid=(2,10,0) tid=(3,3,0)
GPGPU-Sim uArch: cycles simulated: 17500  inst.: 6154982 (ipc=351.7) sim_rate=60940 (inst/sec) elapsed = 0:0:01:41 / Tue May 12 17:44:37 2015
GPGPU-Sim PTX: 6900000 instructions simulated : ctaid=(1,1,0) tid=(27,2,0)
GPGPU-Sim PTX: 7000000 instructions simulated : ctaid=(3,17,0) tid=(19,3,0)
GPGPU-Sim uArch: cycles simulated: 18000  inst.: 6319606 (ipc=351.1) sim_rate=60765 (inst/sec) elapsed = 0:0:01:44 / Tue May 12 17:44:40 2015
GPGPU-Sim PTX: 7100000 instructions simulated : ctaid=(1,5,0) tid=(0,0,0)
GPGPU-Sim uArch: cycles simulated: 18500  inst.: 6424303 (ipc=347.3) sim_rate=60606 (inst/sec) elapsed = 0:0:01:46 / Tue May 12 17:44:42 2015
GPGPU-Sim PTX: 7200000 instructions simulated : ctaid=(0,0,0) tid=(24,3,0)
GPGPU-Sim PTX: 7300000 instructions simulated : ctaid=(0,17,0) tid=(4,2,0)
GPGPU-Sim PTX: 7400000 instructions simulated : ctaid=(0,0,0) tid=(11,1,0)
GPGPU-Sim PTX: 7500000 instructions simulated : ctaid=(2,8,0) tid=(26,1,0)
GPGPU-Sim uArch: cycles simulated: 19000  inst.: 6798772 (ipc=357.8) sim_rate=60703 (inst/sec) elapsed = 0:0:01:52 / Tue May 12 17:44:48 2015
GPGPU-Sim PTX: 7600000 instructions simulated : ctaid=(0,12,0) tid=(23,2,0)
GPGPU-Sim PTX: 7700000 instructions simulated : ctaid=(2,9,0) tid=(13,0,0)
GPGPU-Sim uArch: cycles simulated: 19500  inst.: 6979324 (ipc=357.9) sim_rate=60689 (inst/sec) elapsed = 0:0:01:55 / Tue May 12 17:44:51 2015
GPGPU-Sim PTX: 7800000 instructions simulated : ctaid=(2,8,0) tid=(1,2,0)
GPGPU-Sim PTX: 7900000 instructions simulated : ctaid=(2,2,0) tid=(15,1,0)
GPGPU-Sim uArch: cycles simulated: 20000  inst.: 7107152 (ipc=355.4) sim_rate=60744 (inst/sec) elapsed = 0:0:01:57 / Tue May 12 17:44:53 2015
GPGPU-Sim PTX: 8000000 instructions simulated : ctaid=(3,21,0) tid=(27,1,0)
GPGPU-Sim PTX: 8100000 instructions simulated : ctaid=(2,3,0) tid=(14,2,0)
GPGPU-Sim PTX: 8200000 instructions simulated : ctaid=(2,18,0) tid=(6,0,0)
GPGPU-Sim PTX: 8300000 instructions simulated : ctaid=(1,17,0) tid=(11,2,0)
GPGPU-Sim uArch: cycles simulated: 20500  inst.: 7482852 (ipc=365.0) sim_rate=60836 (inst/sec) elapsed = 0:0:02:03 / Tue May 12 17:44:59 2015
GPGPU-Sim PTX: 8400000 instructions simulated : ctaid=(0,14,0) tid=(1,3,0)
GPGPU-Sim PTX: 8500000 instructions simulated : ctaid=(0,22,0) tid=(5,1,0)
GPGPU-Sim uArch: cycles simulated: 21000  inst.: 7641837 (ipc=363.9) sim_rate=61134 (inst/sec) elapsed = 0:0:02:05 / Tue May 12 17:45:01 2015
GPGPU-Sim PTX: 8600000 instructions simulated : ctaid=(1,9,0) tid=(2,2,0)
GPGPU-Sim PTX: 8700000 instructions simulated : ctaid=(1,11,0) tid=(4,2,0)
GPGPU-Sim uArch: cycles simulated: 21500  inst.: 7813735 (ipc=363.4) sim_rate=61044 (inst/sec) elapsed = 0:0:02:08 / Tue May 12 17:45:04 2015
GPGPU-Sim PTX: 8800000 instructions simulated : ctaid=(2,7,0) tid=(28,1,0)
GPGPU-Sim PTX: 8900000 instructions simulated : ctaid=(1,10,0) tid=(15,2,0)
GPGPU-Sim PTX: 9000000 instructions simulated : ctaid=(0,15,0) tid=(1,2,0)
GPGPU-Sim PTX: 9100000 instructions simulated : ctaid=(0,19,0) tid=(1,1,0)
GPGPU-Sim uArch: cycles simulated: 22000  inst.: 8172534 (ipc=371.5) sim_rate=60989 (inst/sec) elapsed = 0:0:02:14 / Tue May 12 17:45:10 2015
GPGPU-Sim PTX: 9200000 instructions simulated : ctaid=(1,20,0) tid=(18,1,0)
GPGPU-Sim uArch: cycles simulated: 22500  inst.: 8295424 (ipc=368.7) sim_rate=60995 (inst/sec) elapsed = 0:0:02:16 / Tue May 12 17:45:12 2015
GPGPU-Sim PTX: 9300000 instructions simulated : ctaid=(3,11,0) tid=(29,3,0)
GPGPU-Sim PTX: 9400000 instructions simulated : ctaid=(2,15,0) tid=(11,1,0)
GPGPU-Sim uArch: cycles simulated: 23000  inst.: 8494283 (ipc=369.3) sim_rate=61109 (inst/sec) elapsed = 0:0:02:19 / Tue May 12 17:45:15 2015
GPGPU-Sim PTX: 9500000 instructions simulated : ctaid=(0,19,0) tid=(7,0,0)
GPGPU-Sim PTX: 9600000 instructions simulated : ctaid=(2,20,0) tid=(1,1,0)
GPGPU-Sim PTX: 9700000 instructions simulated : ctaid=(1,3,0) tid=(21,2,0)
GPGPU-Sim PTX: 9800000 instructions simulated : ctaid=(2,4,0) tid=(25,0,0)
GPGPU-Sim PTX: 9900000 instructions simulated : ctaid=(0,14,0) tid=(8,2,0)
GPGPU-Sim uArch: cycles simulated: 23500  inst.: 8880090 (ipc=377.9) sim_rate=61242 (inst/sec) elapsed = 0:0:02:25 / Tue May 12 17:45:21 2015
GPGPU-Sim PTX: 10000000 instructions simulated : ctaid=(1,2,0) tid=(16,0,0)
GPGPU-Sim uArch: cycles simulated: 24000  inst.: 8954391 (ipc=373.1) sim_rate=61331 (inst/sec) elapsed = 0:0:02:26 / Tue May 12 17:45:22 2015
GPGPU-Sim PTX: 10100000 instructions simulated : ctaid=(1,8,0) tid=(18,0,0)
GPGPU-Sim uArch: cycles simulated: 24500  inst.: 9101705 (ipc=371.5) sim_rate=61085 (inst/sec) elapsed = 0:0:02:29 / Tue May 12 17:45:25 2015
GPGPU-Sim PTX: 10200000 instructions simulated : ctaid=(1,13,0) tid=(16,3,0)
GPGPU-Sim PTX: 10300000 instructions simulated : ctaid=(2,4,0) tid=(22,3,0)
GPGPU-Sim PTX: 10400000 instructions simulated : ctaid=(1,21,0) tid=(14,1,0)
GPGPU-Sim PTX: 10500000 instructions simulated : ctaid=(0,9,0) tid=(21,2,0)
GPGPU-Sim PTX: 10600000 instructions simulated : ctaid=(1,12,0) tid=(1,0,0)
GPGPU-Sim uArch: cycles simulated: 25000  inst.: 9499653 (ipc=380.0) sim_rate=61288 (inst/sec) elapsed = 0:0:02:35 / Tue May 12 17:45:31 2015
GPGPU-Sim PTX: 10700000 instructions simulated : ctaid=(3,8,0) tid=(0,1,0)
GPGPU-Sim uArch: cycles simulated: 25500  inst.: 9601095 (ipc=376.5) sim_rate=61153 (inst/sec) elapsed = 0:0:02:37 / Tue May 12 17:45:33 2015
GPGPU-Sim PTX: 10800000 instructions simulated : ctaid=(2,3,0) tid=(22,0,0)
GPGPU-Sim uArch: cycles simulated: 26000  inst.: 9722814 (ipc=374.0) sim_rate=61149 (inst/sec) elapsed = 0:0:02:39 / Tue May 12 17:45:35 2015
GPGPU-Sim PTX: 10900000 instructions simulated : ctaid=(2,13,0) tid=(8,1,0)
GPGPU-Sim PTX: 11000000 instructions simulated : ctaid=(2,0,0) tid=(31,1,0)
GPGPU-Sim PTX: 11100000 instructions simulated : ctaid=(0,2,0) tid=(3,1,0)
GPGPU-Sim PTX: 11200000 instructions simulated : ctaid=(0,9,0) tid=(12,0,0)
GPGPU-Sim uArch: cycles simulated: 26500  inst.: 10090175 (ipc=380.8) sim_rate=61152 (inst/sec) elapsed = 0:0:02:45 / Tue May 12 17:45:41 2015
GPGPU-Sim PTX: 11300000 instructions simulated : ctaid=(0,21,0) tid=(3,2,0)
GPGPU-Sim PTX: 11400000 instructions simulated : ctaid=(3,10,0) tid=(15,1,0)
GPGPU-Sim uArch: cycles simulated: 27000  inst.: 10258990 (ipc=380.0) sim_rate=61065 (inst/sec) elapsed = 0:0:02:48 / Tue May 12 17:45:44 2015
GPGPU-Sim PTX: 11500000 instructions simulated : ctaid=(3,12,0) tid=(7,0,0)
GPGPU-Sim PTX: 11600000 instructions simulated : ctaid=(3,8,0) tid=(21,3,0)
GPGPU-Sim uArch: cycles simulated: 27500  inst.: 10402455 (ipc=378.3) sim_rate=61190 (inst/sec) elapsed = 0:0:02:50 / Tue May 12 17:45:46 2015
GPGPU-Sim PTX: 11700000 instructions simulated : ctaid=(1,19,0) tid=(26,3,0)
GPGPU-Sim PTX: 11800000 instructions simulated : ctaid=(1,5,0) tid=(25,2,0)
GPGPU-Sim PTX: 11900000 instructions simulated : ctaid=(1,5,0) tid=(21,1,0)
GPGPU-Sim PTX: 12000000 instructions simulated : ctaid=(2,21,0) tid=(19,1,0)
GPGPU-Sim uArch: cycles simulated: 28000  inst.: 10777227 (ipc=384.9) sim_rate=61234 (inst/sec) elapsed = 0:0:02:56 / Tue May 12 17:45:52 2015
GPGPU-Sim PTX: 12100000 instructions simulated : ctaid=(0,2,0) tid=(23,0,0)
GPGPU-Sim PTX: 12200000 instructions simulated : ctaid=(1,20,0) tid=(8,1,0)
GPGPU-Sim uArch: cycles simulated: 28500  inst.: 10943741 (ipc=384.0) sim_rate=61138 (inst/sec) elapsed = 0:0:02:59 / Tue May 12 17:45:55 2015
GPGPU-Sim PTX: 12300000 instructions simulated : ctaid=(1,13,0) tid=(9,1,0)
GPGPU-Sim PTX: 12400000 instructions simulated : ctaid=(0,14,0) tid=(11,1,0)
GPGPU-Sim uArch: cycles simulated: 29000  inst.: 11148886 (ipc=384.4) sim_rate=61257 (inst/sec) elapsed = 0:0:03:02 / Tue May 12 17:45:58 2015
GPGPU-Sim PTX: 12500000 instructions simulated : ctaid=(1,12,0) tid=(16,2,0)
GPGPU-Sim PTX: 12600000 instructions simulated : ctaid=(2,8,0) tid=(5,0,0)
GPGPU-Sim PTX: 12700000 instructions simulated : ctaid=(2,14,0) tid=(1,0,0)
GPGPU-Sim PTX: 12800000 instructions simulated : ctaid=(2,2,0) tid=(23,0,0)
GPGPU-Sim uArch: cycles simulated: 29500  inst.: 11499349 (ipc=389.8) sim_rate=61493 (inst/sec) elapsed = 0:0:03:07 / Tue May 12 17:46:03 2015
GPGPU-Sim PTX: 12900000 instructions simulated : ctaid=(1,13,0) tid=(9,0,0)
GPGPU-Sim PTX: 13000000 instructions simulated : ctaid=(1,15,0) tid=(1,0,0)
GPGPU-Sim uArch: cycles simulated: 30000  inst.: 11632347 (ipc=387.7) sim_rate=61222 (inst/sec) elapsed = 0:0:03:10 / Tue May 12 17:46:06 2015
GPGPU-Sim PTX: 13100000 instructions simulated : ctaid=(2,17,0) tid=(4,3,0)
GPGPU-Sim PTX: 13200000 instructions simulated : ctaid=(0,14,0) tid=(31,0,0)
GPGPU-Sim uArch: cycles simulated: 30500  inst.: 11828711 (ipc=387.8) sim_rate=61288 (inst/sec) elapsed = 0:0:03:13 / Tue May 12 17:46:09 2015
GPGPU-Sim PTX: 13300000 instructions simulated : ctaid=(1,6,0) tid=(11,3,0)
GPGPU-Sim PTX: 13400000 instructions simulated : ctaid=(0,21,0) tid=(15,1,0)
GPGPU-Sim PTX: 13500000 instructions simulated : ctaid=(0,10,0) tid=(28,0,0)
GPGPU-Sim PTX: 13600000 instructions simulated : ctaid=(3,13,0) tid=(18,3,0)
GPGPU-Sim uArch: cycles simulated: 31000  inst.: 12194744 (ipc=393.4) sim_rate=61280 (inst/sec) elapsed = 0:0:03:19 / Tue May 12 17:46:15 2015
GPGPU-Sim PTX: 13700000 instructions simulated : ctaid=(2,17,0) tid=(25,1,0)
GPGPU-Sim uArch: cycles simulated: 31500  inst.: 12309914 (ipc=390.8) sim_rate=61243 (inst/sec) elapsed = 0:0:03:21 / Tue May 12 17:46:17 2015
GPGPU-Sim PTX: 13800000 instructions simulated : ctaid=(3,13,0) tid=(1,0,0)
GPGPU-Sim PTX: 13900000 instructions simulated : ctaid=(3,14,0) tid=(3,3,0)
GPGPU-Sim uArch: cycles simulated: 32000  inst.: 12497757 (ipc=390.6) sim_rate=61263 (inst/sec) elapsed = 0:0:03:24 / Tue May 12 17:46:20 2015
GPGPU-Sim PTX: 14000000 instructions simulated : ctaid=(2,3,0) tid=(1,2,0)
GPGPU-Sim PTX: 14100000 instructions simulated : ctaid=(2,11,0) tid=(11,0,0)
GPGPU-Sim PTX: 14200000 instructions simulated : ctaid=(0,4,0) tid=(15,2,0)
GPGPU-Sim PTX: 14300000 instructions simulated : ctaid=(1,10,0) tid=(0,0,0)
GPGPU-Sim PTX: 14400000 instructions simulated : ctaid=(0,19,0) tid=(10,3,0)
GPGPU-Sim uArch: cycles simulated: 32500  inst.: 12863102 (ipc=395.8) sim_rate=61545 (inst/sec) elapsed = 0:0:03:29 / Tue May 12 17:46:25 2015
GPGPU-Sim PTX: 14500000 instructions simulated : ctaid=(2,19,0) tid=(25,0,0)
GPGPU-Sim uArch: cycles simulated: 33000  inst.: 12976424 (ipc=393.2) sim_rate=61209 (inst/sec) elapsed = 0:0:03:32 / Tue May 12 17:46:28 2015
GPGPU-Sim PTX: 14600000 instructions simulated : ctaid=(0,18,0) tid=(9,2,0)
GPGPU-Sim PTX: 14700000 instructions simulated : ctaid=(2,15,0) tid=(10,3,0)
GPGPU-Sim uArch: cycles simulated: 33500  inst.: 13151646 (ipc=392.6) sim_rate=61170 (inst/sec) elapsed = 0:0:03:35 / Tue May 12 17:46:31 2015
GPGPU-Sim PTX: 14800000 instructions simulated : ctaid=(0,18,0) tid=(5,0,0)
GPGPU-Sim PTX: 14900000 instructions simulated : ctaid=(1,4,0) tid=(1,3,0)
GPGPU-Sim PTX: 15000000 instructions simulated : ctaid=(1,16,0) tid=(12,1,0)
GPGPU-Sim PTX: 15100000 instructions simulated : ctaid=(0,19,0) tid=(19,1,0)
GPGPU-Sim uArch: cycles simulated: 34000  inst.: 13525931 (ipc=397.8) sim_rate=61481 (inst/sec) elapsed = 0:0:03:40 / Tue May 12 17:46:36 2015
GPGPU-Sim PTX: 15200000 instructions simulated : ctaid=(0,19,0) tid=(17,1,0)
GPGPU-Sim uArch: cycles simulated: 34500  inst.: 13655365 (ipc=395.8) sim_rate=61234 (inst/sec) elapsed = 0:0:03:43 / Tue May 12 17:46:39 2015
GPGPU-Sim PTX: 15300000 instructions simulated : ctaid=(1,17,0) tid=(21,0,0)
GPGPU-Sim PTX: 15400000 instructions simulated : ctaid=(1,9,0) tid=(21,1,0)
GPGPU-Sim PTX: 15500000 instructions simulated : ctaid=(0,8,0) tid=(26,2,0)
GPGPU-Sim uArch: cycles simulated: 35000  inst.: 13840775 (ipc=395.5) sim_rate=61242 (inst/sec) elapsed = 0:0:03:46 / Tue May 12 17:46:42 2015
GPGPU-Sim PTX: 15600000 instructions simulated : ctaid=(1,6,0) tid=(0,2,0)
GPGPU-Sim PTX: 15700000 instructions simulated : ctaid=(0,10,0) tid=(27,3,0)
GPGPU-Sim PTX: 15800000 instructions simulated : ctaid=(2,20,0) tid=(3,2,0)
GPGPU-Sim PTX: 15900000 instructions simulated : ctaid=(1,4,0) tid=(7,2,0)
GPGPU-Sim uArch: cycles simulated: 35500  inst.: 14224635 (ipc=400.7) sim_rate=61313 (inst/sec) elapsed = 0:0:03:52 / Tue May 12 17:46:48 2015
GPGPU-Sim PTX: 16000000 instructions simulated : ctaid=(3,8,0) tid=(3,3,0)
GPGPU-Sim uArch: cycles simulated: 36000  inst.: 14357833 (ipc=398.8) sim_rate=61358 (inst/sec) elapsed = 0:0:03:54 / Tue May 12 17:46:50 2015
GPGPU-Sim PTX: 16100000 instructions simulated : ctaid=(1,12,0) tid=(13,1,0)
GPGPU-Sim PTX: 16200000 instructions simulated : ctaid=(0,21,0) tid=(1,0,0)
GPGPU-Sim PTX: 16300000 instructions simulated : ctaid=(2,7,0) tid=(21,3,0)
GPGPU-Sim uArch: cycles simulated: 36500  inst.: 14614879 (ipc=400.4) sim_rate=61407 (inst/sec) elapsed = 0:0:03:58 / Tue May 12 17:46:54 2015
GPGPU-Sim PTX: 16400000 instructions simulated : ctaid=(2,21,0) tid=(16,1,0)
GPGPU-Sim PTX: 16500000 instructions simulated : ctaid=(3,2,0) tid=(31,2,0)
GPGPU-Sim PTX: 16600000 instructions simulated : ctaid=(0,15,0) tid=(3,2,0)
GPGPU-Sim PTX: 16700000 instructions simulated : ctaid=(1,10,0) tid=(13,3,0)
GPGPU-Sim uArch: cycles simulated: 37000  inst.: 14944811 (ipc=403.9) sim_rate=61501 (inst/sec) elapsed = 0:0:04:03 / Tue May 12 17:46:59 2015
GPGPU-Sim PTX: 16800000 instructions simulated : ctaid=(2,1,0) tid=(17,1,0)
GPGPU-Sim uArch: cycles simulated: 37500  inst.: 15077885 (ipc=402.1) sim_rate=61292 (inst/sec) elapsed = 0:0:04:06 / Tue May 12 17:47:02 2015
GPGPU-Sim PTX: 16900000 instructions simulated : ctaid=(1,18,0) tid=(12,3,0)
GPGPU-Sim PTX: 17000000 instructions simulated : ctaid=(0,21,0) tid=(5,3,0)
GPGPU-Sim PTX: 17100000 instructions simulated : ctaid=(0,6,0) tid=(27,3,0)
GPGPU-Sim PTX: 17200000 instructions simulated : ctaid=(1,3,0) tid=(30,3,0)
GPGPU-Sim uArch: cycles simulated: 38000  inst.: 15405390 (ipc=405.4) sim_rate=61376 (inst/sec) elapsed = 0:0:04:11 / Tue May 12 17:47:07 2015
GPGPU-Sim PTX: 17300000 instructions simulated : ctaid=(0,2,0) tid=(16,0,0)
GPGPU-Sim PTX: 17400000 instructions simulated : ctaid=(0,2,0) tid=(28,2,0)
GPGPU-Sim PTX: 17500000 instructions simulated : ctaid=(2,2,0) tid=(25,1,0)
GPGPU-Sim uArch: cycles simulated: 38500  inst.: 15645197 (ipc=406.4) sim_rate=61595 (inst/sec) elapsed = 0:0:04:14 / Tue May 12 17:47:10 2015
GPGPU-Sim PTX: 17600000 instructions simulated : ctaid=(2,8,0) tid=(4,2,0)
GPGPU-Sim PTX: 17700000 instructions simulated : ctaid=(2,21,0) tid=(8,3,0)
GPGPU-Sim uArch: cycles simulated: 39000  inst.: 15805277 (ipc=405.3) sim_rate=61499 (inst/sec) elapsed = 0:0:04:17 / Tue May 12 17:47:13 2015
GPGPU-Sim PTX: 17800000 instructions simulated : ctaid=(3,18,0) tid=(13,3,0)
GPGPU-Sim PTX: 17900000 instructions simulated : ctaid=(0,8,0) tid=(12,3,0)
GPGPU-Sim PTX: 18000000 instructions simulated : ctaid=(0,9,0) tid=(20,2,0)
GPGPU-Sim uArch: cycles simulated: 39500  inst.: 16140557 (ipc=408.6) sim_rate=61605 (inst/sec) elapsed = 0:0:04:22 / Tue May 12 17:47:18 2015
GPGPU-Sim PTX: 18100000 instructions simulated : ctaid=(1,16,0) tid=(25,0,0)
GPGPU-Sim PTX: 18200000 instructions simulated : ctaid=(0,17,0) tid=(5,3,0)
GPGPU-Sim uArch: cycles simulated: 40000  inst.: 16321386 (ipc=408.0) sim_rate=61590 (inst/sec) elapsed = 0:0:04:25 / Tue May 12 17:47:21 2015
GPGPU-Sim PTX: 18300000 instructions simulated : ctaid=(2,21,0) tid=(14,3,0)
GPGPU-Sim PTX: 18400000 instructions simulated : ctaid=(2,3,0) tid=(1,3,0)
GPGPU-Sim PTX: 18500000 instructions simulated : ctaid=(2,9,0) tid=(0,3,0)
GPGPU-Sim uArch: cycles simulated: 40500  inst.: 16533388 (ipc=408.2) sim_rate=61462 (inst/sec) elapsed = 0:0:04:29 / Tue May 12 17:47:25 2015
GPGPU-Sim PTX: 18600000 instructions simulated : ctaid=(1,1,0) tid=(19,1,0)
GPGPU-Sim PTX: 18700000 instructions simulated : ctaid=(2,21,0) tid=(9,0,0)
GPGPU-Sim PTX: 18800000 instructions simulated : ctaid=(0,8,0) tid=(9,0,0)
GPGPU-Sim PTX: 18900000 instructions simulated : ctaid=(3,15,0) tid=(10,2,0)
GPGPU-Sim uArch: cycles simulated: 41000  inst.: 16862261 (ipc=411.3) sim_rate=61541 (inst/sec) elapsed = 0:0:04:34 / Tue May 12 17:47:30 2015
GPGPU-Sim PTX: 19000000 instructions simulated : ctaid=(2,1,0) tid=(8,3,0)
GPGPU-Sim uArch: cycles simulated: 41500  inst.: 17008583 (ipc=409.8) sim_rate=61625 (inst/sec) elapsed = 0:0:04:36 / Tue May 12 17:47:32 2015
GPGPU-Sim PTX: 19100000 instructions simulated : ctaid=(3,17,0) tid=(1,1,0)
GPGPU-Sim PTX: 19200000 instructions simulated : ctaid=(1,7,0) tid=(19,3,0)
GPGPU-Sim PTX: 19300000 instructions simulated : ctaid=(0,14,0) tid=(26,0,0)
GPGPU-Sim uArch: cycles simulated: 42000  inst.: 17290517 (ipc=411.7) sim_rate=61532 (inst/sec) elapsed = 0:0:04:41 / Tue May 12 17:47:37 2015
GPGPU-Sim PTX: 19400000 instructions simulated : ctaid=(0,16,0) tid=(11,1,0)
GPGPU-Sim PTX: 19500000 instructions simulated : ctaid=(0,8,0) tid=(29,1,0)
GPGPU-Sim PTX: 19600000 instructions simulated : ctaid=(1,20,0) tid=(23,1,0)
GPGPU-Sim PTX: 19700000 instructions simulated : ctaid=(0,1,0) tid=(11,0,0)
GPGPU-Sim uArch: cycles simulated: 42500  inst.: 17614329 (ipc=414.5) sim_rate=61588 (inst/sec) elapsed = 0:0:04:46 / Tue May 12 17:47:42 2015
GPGPU-Sim PTX: 19800000 instructions simulated : ctaid=(2,8,0) tid=(29,0,0)
GPGPU-Sim PTX: 19900000 instructions simulated : ctaid=(2,4,0) tid=(5,3,0)
GPGPU-Sim uArch: cycles simulated: 43000  inst.: 17766052 (ipc=413.2) sim_rate=61474 (inst/sec) elapsed = 0:0:04:49 / Tue May 12 17:47:45 2015
GPGPU-Sim PTX: 20000000 instructions simulated : ctaid=(2,11,0) tid=(28,0,0)
GPGPU-Sim PTX: 20100000 instructions simulated : ctaid=(1,22,0) tid=(27,0,0)
GPGPU-Sim PTX: 20200000 instructions simulated : ctaid=(2,4,0) tid=(31,1,0)
GPGPU-Sim uArch: cycles simulated: 43500  inst.: 18095309 (ipc=416.0) sim_rate=61548 (inst/sec) elapsed = 0:0:04:54 / Tue May 12 17:47:50 2015
GPGPU-Sim PTX: 20300000 instructions simulated : ctaid=(1,17,0) tid=(21,2,0)
GPGPU-Sim PTX: 20400000 instructions simulated : ctaid=(1,11,0) tid=(23,2,0)
GPGPU-Sim PTX: 20500000 instructions simulated : ctaid=(1,14,0) tid=(8,3,0)
GPGPU-Sim uArch: cycles simulated: 44000  inst.: 18321479 (ipc=416.4) sim_rate=61688 (inst/sec) elapsed = 0:0:04:57 / Tue May 12 17:47:53 2015
GPGPU-Sim PTX: 20600000 instructions simulated : ctaid=(0,7,0) tid=(24,3,0)
GPGPU-Sim PTX: 20700000 instructions simulated : ctaid=(0,19,0) tid=(8,1,0)
GPGPU-Sim uArch: cycles simulated: 44500  inst.: 18528502 (ipc=416.4) sim_rate=61556 (inst/sec) elapsed = 0:0:05:01 / Tue May 12 17:47:57 2015
GPGPU-Sim PTX: 20800000 instructions simulated : ctaid=(0,16,0) tid=(17,3,0)
GPGPU-Sim PTX: 20900000 instructions simulated : ctaid=(1,10,0) tid=(29,2,0)
GPGPU-Sim PTX: 21000000 instructions simulated : ctaid=(0,20,0) tid=(1,3,0)
GPGPU-Sim PTX: 21100000 instructions simulated : ctaid=(0,20,0) tid=(4,1,0)
GPGPU-Sim uArch: cycles simulated: 45000  inst.: 18830606 (ipc=418.5) sim_rate=61537 (inst/sec) elapsed = 0:0:05:06 / Tue May 12 17:48:02 2015
GPGPU-Sim PTX: 21200000 instructions simulated : ctaid=(2,8,0) tid=(22,0,0)
GPGPU-Sim PTX: 21300000 instructions simulated : ctaid=(2,14,0) tid=(25,1,0)
GPGPU-Sim uArch: cycles simulated: 45500  inst.: 19059941 (ipc=418.9) sim_rate=61682 (inst/sec) elapsed = 0:0:05:09 / Tue May 12 17:48:05 2015
GPGPU-Sim PTX: 21400000 instructions simulated : ctaid=(3,4,0) tid=(15,3,0)
GPGPU-Sim PTX: 21500000 instructions simulated : ctaid=(2,6,0) tid=(17,0,0)
GPGPU-Sim PTX: 21600000 instructions simulated : ctaid=(0,8,0) tid=(28,0,0)
GPGPU-Sim uArch: cycles simulated: 46000  inst.: 19291297 (ipc=419.4) sim_rate=61633 (inst/sec) elapsed = 0:0:05:13 / Tue May 12 17:48:09 2015
GPGPU-Sim PTX: 21700000 instructions simulated : ctaid=(1,5,0) tid=(7,0,0)
GPGPU-Sim PTX: 21800000 instructions simulated : ctaid=(1,15,0) tid=(10,1,0)
GPGPU-Sim PTX: 21900000 instructions simulated : ctaid=(2,21,0) tid=(11,3,0)
GPGPU-Sim uArch: cycles simulated: 46500  inst.: 19602977 (ipc=421.6) sim_rate=61644 (inst/sec) elapsed = 0:0:05:18 / Tue May 12 17:48:14 2015
GPGPU-Sim PTX: 22000000 instructions simulated : ctaid=(0,4,0) tid=(25,0,0)
GPGPU-Sim PTX: 22100000 instructions simulated : ctaid=(2,8,0) tid=(21,2,0)
GPGPU-Sim uArch: cycles simulated: 47000  inst.: 19783288 (ipc=420.9) sim_rate=61630 (inst/sec) elapsed = 0:0:05:21 / Tue May 12 17:48:17 2015
GPGPU-Sim PTX: 22200000 instructions simulated : ctaid=(0,0,0) tid=(23,0,0)
GPGPU-Sim PTX: 22300000 instructions simulated : ctaid=(0,4,0) tid=(17,3,0)
GPGPU-Sim PTX: 22400000 instructions simulated : ctaid=(0,8,0) tid=(13,3,0)
GPGPU-Sim uArch: cycles simulated: 47500  inst.: 20043551 (ipc=422.0) sim_rate=61672 (inst/sec) elapsed = 0:0:05:25 / Tue May 12 17:48:21 2015
GPGPU-Sim PTX: 22500000 instructions simulated : ctaid=(0,12,0) tid=(10,3,0)
GPGPU-Sim PTX: 22600000 instructions simulated : ctaid=(1,17,0) tid=(11,2,0)
GPGPU-Sim PTX: 22700000 instructions simulated : ctaid=(0,21,0) tid=(15,3,0)
GPGPU-Sim PTX: 22800000 instructions simulated : ctaid=(0,22,0) tid=(18,2,0)
GPGPU-Sim uArch: cycles simulated: 48000  inst.: 20353690 (ipc=424.0) sim_rate=61677 (inst/sec) elapsed = 0:0:05:30 / Tue May 12 17:48:26 2015
GPGPU-Sim PTX: 22900000 instructions simulated : ctaid=(1,1,0) tid=(23,1,0)
GPGPU-Sim PTX: 23000000 instructions simulated : ctaid=(2,18,0) tid=(25,0,0)
GPGPU-Sim uArch: cycles simulated: 48500  inst.: 20521723 (ipc=423.1) sim_rate=61812 (inst/sec) elapsed = 0:0:05:32 / Tue May 12 17:48:28 2015
GPGPU-Sim PTX: 23100000 instructions simulated : ctaid=(2,13,0) tid=(9,1,0)
GPGPU-Sim PTX: 23200000 instructions simulated : ctaid=(0,13,0) tid=(12,2,0)
GPGPU-Sim PTX: 23300000 instructions simulated : ctaid=(0,4,0) tid=(17,0,0)
GPGPU-Sim uArch: cycles simulated: 49000  inst.: 20822321 (ipc=424.9) sim_rate=61787 (inst/sec) elapsed = 0:0:05:37 / Tue May 12 17:48:33 2015
GPGPU-Sim PTX: 23400000 instructions simulated : ctaid=(0,13,0) tid=(23,1,0)
GPGPU-Sim PTX: 23500000 instructions simulated : ctaid=(2,11,0) tid=(4,0,0)
GPGPU-Sim PTX: 23600000 instructions simulated : ctaid=(0,7,0) tid=(6,0,0)
GPGPU-Sim uArch: cycles simulated: 49500  inst.: 21081819 (ipc=425.9) sim_rate=61823 (inst/sec) elapsed = 0:0:05:41 / Tue May 12 17:48:37 2015
GPGPU-Sim PTX: 23700000 instructions simulated : ctaid=(2,2,0) tid=(11,0,0)
GPGPU-Sim uArch: cycles simulated: 50000  inst.: 21206366 (ipc=424.1) sim_rate=61646 (inst/sec) elapsed = 0:0:05:44 / Tue May 12 17:48:40 2015
GPGPU-Sim PTX: 23800000 instructions simulated : ctaid=(3,5,0) tid=(7,0,0)
GPGPU-Sim PTX: 23900000 instructions simulated : ctaid=(0,2,0) tid=(3,2,0)
GPGPU-Sim PTX: 24000000 instructions simulated : ctaid=(2,14,0) tid=(17,3,0)
GPGPU-Sim PTX: 24100000 instructions simulated : ctaid=(0,11,0) tid=(21,0,0)
GPGPU-Sim uArch: cycles simulated: 50500  inst.: 21527402 (ipc=426.3) sim_rate=61860 (inst/sec) elapsed = 0:0:05:48 / Tue May 12 17:48:44 2015
GPGPU-Sim PTX: 24200000 instructions simulated : ctaid=(2,6,0) tid=(21,3,0)
GPGPU-Sim PTX: 24300000 instructions simulated : ctaid=(0,17,0) tid=(18,3,0)
GPGPU-Sim PTX: 24400000 instructions simulated : ctaid=(1,22,0) tid=(9,3,0)
GPGPU-Sim uArch: cycles simulated: 51000  inst.: 21781567 (ipc=427.1) sim_rate=61879 (inst/sec) elapsed = 0:0:05:52 / Tue May 12 17:48:48 2015
GPGPU-Sim PTX: 24500000 instructions simulated : ctaid=(1,6,0) tid=(17,3,0)
GPGPU-Sim uArch: cycles simulated: 51500  inst.: 21923606 (ipc=425.7) sim_rate=61756 (inst/sec) elapsed = 0:0:05:55 / Tue May 12 17:48:51 2015
GPGPU-Sim PTX: 24600000 instructions simulated : ctaid=(2,3,0) tid=(28,1,0)
GPGPU-Sim PTX: 24700000 instructions simulated : ctaid=(0,4,0) tid=(23,0,0)
GPGPU-Sim PTX: 24800000 instructions simulated : ctaid=(0,12,0) tid=(14,0,0)
GPGPU-Sim PTX: 24900000 instructions simulated : ctaid=(0,10,0) tid=(0,1,0)
GPGPU-Sim uArch: cycles simulated: 52000  inst.: 22262051 (ipc=428.1) sim_rate=61839 (inst/sec) elapsed = 0:0:06:00 / Tue May 12 17:48:56 2015
GPGPU-Sim PTX: 25000000 instructions simulated : ctaid=(2,0,0) tid=(21,3,0)
GPGPU-Sim PTX: 25100000 instructions simulated : ctaid=(0,22,0) tid=(30,0,0)
GPGPU-Sim PTX: 25200000 instructions simulated : ctaid=(0,6,0) tid=(13,3,0)
GPGPU-Sim uArch: cycles simulated: 52500  inst.: 22469683 (ipc=428.0) sim_rate=61729 (inst/sec) elapsed = 0:0:06:04 / Tue May 12 17:49:00 2015
GPGPU-Sim PTX: 25300000 instructions simulated : ctaid=(2,14,0) tid=(8,2,0)
GPGPU-Sim uArch: cycles simulated: 53000  inst.: 22624857 (ipc=426.9) sim_rate=61816 (inst/sec) elapsed = 0:0:06:06 / Tue May 12 17:49:02 2015
GPGPU-Sim PTX: 25400000 instructions simulated : ctaid=(2,15,0) tid=(6,2,0)
GPGPU-Sim PTX: 25500000 instructions simulated : ctaid=(0,19,0) tid=(2,0,0)
GPGPU-Sim PTX: 25600000 instructions simulated : ctaid=(1,0,0) tid=(28,2,0)
GPGPU-Sim PTX: 25700000 instructions simulated : ctaid=(2,3,0) tid=(31,0,0)
GPGPU-Sim uArch: cycles simulated: 53500  inst.: 22949571 (ipc=429.0) sim_rate=61858 (inst/sec) elapsed = 0:0:06:11 / Tue May 12 17:49:07 2015
GPGPU-Sim PTX: 25800000 instructions simulated : ctaid=(3,19,0) tid=(15,1,0)
GPGPU-Sim PTX: 25900000 instructions simulated : ctaid=(1,6,0) tid=(26,3,0)
GPGPU-Sim PTX: 26000000 instructions simulated : ctaid=(0,6,0) tid=(20,2,0)
GPGPU-Sim uArch: cycles simulated: 54000  inst.: 23178867 (ipc=429.2) sim_rate=61810 (inst/sec) elapsed = 0:0:06:15 / Tue May 12 17:49:11 2015
GPGPU-Sim PTX: 26100000 instructions simulated : ctaid=(1,19,0) tid=(17,0,0)
GPGPU-Sim PTX: 26200000 instructions simulated : ctaid=(3,21,0) tid=(1,1,0)
GPGPU-Sim uArch: cycles simulated: 54500  inst.: 23415149 (ipc=429.6) sim_rate=61781 (inst/sec) elapsed = 0:0:06:19 / Tue May 12 17:49:15 2015
GPGPU-Sim PTX: 26300000 instructions simulated : ctaid=(2,16,0) tid=(20,3,0)
GPGPU-Sim PTX: 26400000 instructions simulated : ctaid=(0,19,0) tid=(8,2,0)
GPGPU-Sim PTX: 26500000 instructions simulated : ctaid=(0,7,0) tid=(16,2,0)
GPGPU-Sim PTX: 26600000 instructions simulated : ctaid=(0,14,0) tid=(3,2,0)
GPGPU-Sim uArch: cycles simulated: 55000  inst.: 23730269 (ipc=431.5) sim_rate=61797 (inst/sec) elapsed = 0:0:06:24 / Tue May 12 17:49:20 2015
GPGPU-Sim PTX: 26700000 instructions simulated : ctaid=(0,1,0) tid=(26,1,0)
GPGPU-Sim PTX: 26800000 instructions simulated : ctaid=(2,15,0) tid=(9,1,0)
GPGPU-Sim uArch: cycles simulated: 55500  inst.: 23917643 (ipc=430.9) sim_rate=61802 (inst/sec) elapsed = 0:0:06:27 / Tue May 12 17:49:23 2015
GPGPU-Sim PTX: 26900000 instructions simulated : ctaid=(0,2,0) tid=(10,3,0)
GPGPU-Sim PTX: 27000000 instructions simulated : ctaid=(2,13,0) tid=(20,1,0)
GPGPU-Sim PTX: 27100000 instructions simulated : ctaid=(2,18,0) tid=(3,0,0)
GPGPU-Sim uArch: cycles simulated: 56000  inst.: 24213517 (ipc=432.4) sim_rate=61927 (inst/sec) elapsed = 0:0:06:31 / Tue May 12 17:49:27 2015
GPGPU-Sim PTX: 27200000 instructions simulated : ctaid=(3,8,0) tid=(19,2,0)
GPGPU-Sim PTX: 27300000 instructions simulated : ctaid=(1,20,0) tid=(17,0,0)
GPGPU-Sim PTX: 27400000 instructions simulated : ctaid=(1,6,0) tid=(28,2,0)
GPGPU-Sim uArch: cycles simulated: 56500  inst.: 24503906 (ipc=433.7) sim_rate=61878 (inst/sec) elapsed = 0:0:06:36 / Tue May 12 17:49:32 2015
GPGPU-Sim PTX: 27500000 instructions simulated : ctaid=(2,11,0) tid=(23,1,0)
GPGPU-Sim PTX: 27600000 instructions simulated : ctaid=(1,10,0) tid=(10,0,0)
GPGPU-Sim uArch: cycles simulated: 57000  inst.: 24676684 (ipc=432.9) sim_rate=61846 (inst/sec) elapsed = 0:0:06:39 / Tue May 12 17:49:35 2015
GPGPU-Sim PTX: 27700000 instructions simulated : ctaid=(2,20,0) tid=(17,3,0)
GPGPU-Sim PTX: 27800000 instructions simulated : ctaid=(2,16,0) tid=(15,2,0)
GPGPU-Sim PTX: 27900000 instructions simulated : ctaid=(1,15,0) tid=(5,2,0)
GPGPU-Sim PTX: 28000000 instructions simulated : ctaid=(2,6,0) tid=(21,3,0)
GPGPU-Sim uArch: cycles simulated: 57500  inst.: 24976485 (ipc=434.4) sim_rate=61822 (inst/sec) elapsed = 0:0:06:44 / Tue May 12 17:49:40 2015
GPGPU-Sim PTX: 28100000 instructions simulated : ctaid=(0,21,0) tid=(8,1,0)
GPGPU-Sim PTX: 28200000 instructions simulated : ctaid=(0,5,0) tid=(13,3,0)
GPGPU-Sim uArch: cycles simulated: 58000  inst.: 25209419 (ipc=434.6) sim_rate=61939 (inst/sec) elapsed = 0:0:06:47 / Tue May 12 17:49:43 2015
GPGPU-Sim PTX: 28300000 instructions simulated : ctaid=(3,7,0) tid=(0,3,0)
GPGPU-Sim PTX: 28400000 instructions simulated : ctaid=(2,1,0) tid=(6,1,0)
GPGPU-Sim PTX: 28500000 instructions simulated : ctaid=(2,18,0) tid=(25,1,0)
GPGPU-Sim uArch: cycles simulated: 58500  inst.: 25431931 (ipc=434.7) sim_rate=61878 (inst/sec) elapsed = 0:0:06:51 / Tue May 12 17:49:47 2015
GPGPU-Sim PTX: 28600000 instructions simulated : ctaid=(0,8,0) tid=(13,3,0)
GPGPU-Sim PTX: 28700000 instructions simulated : ctaid=(0,13,0) tid=(20,0,0)
GPGPU-Sim PTX: 28800000 instructions simulated : ctaid=(0,4,0) tid=(13,1,0)
GPGPU-Sim uArch: cycles simulated: 59000  inst.: 25746803 (ipc=436.4) sim_rate=61891 (inst/sec) elapsed = 0:0:06:56 / Tue May 12 17:49:52 2015
GPGPU-Sim PTX: 28900000 instructions simulated : ctaid=(0,21,0) tid=(13,3,0)
GPGPU-Sim PTX: 29000000 instructions simulated : ctaid=(2,12,0) tid=(2,2,0)
GPGPU-Sim PTX: 29100000 instructions simulated : ctaid=(2,11,0) tid=(25,1,0)
GPGPU-Sim uArch: cycles simulated: 59500  inst.: 25933345 (ipc=435.9) sim_rate=61893 (inst/sec) elapsed = 0:0:06:59 / Tue May 12 17:49:55 2015
GPGPU-Sim PTX: 29200000 instructions simulated : ctaid=(0,2,0) tid=(12,2,0)
GPGPU-Sim PTX: 29300000 instructions simulated : ctaid=(1,20,0) tid=(1,3,0)
GPGPU-Sim PTX: 29400000 instructions simulated : ctaid=(1,4,0) tid=(27,2,0)
GPGPU-Sim uArch: cycles simulated: 60000  inst.: 26202925 (ipc=436.7) sim_rate=61799 (inst/sec) elapsed = 0:0:07:04 / Tue May 12 17:50:00 2015
GPGPU-Sim PTX: 29500000 instructions simulated : ctaid=(1,19,0) tid=(8,2,0)
GPGPU-Sim PTX: 29600000 instructions simulated : ctaid=(2,19,0) tid=(10,3,0)
GPGPU-Sim PTX: 29700000 instructions simulated : ctaid=(1,12,0) tid=(11,0,0)
GPGPU-Sim uArch: cycles simulated: 60500  inst.: 26517139 (ipc=438.3) sim_rate=61811 (inst/sec) elapsed = 0:0:07:09 / Tue May 12 17:50:05 2015
GPGPU-Sim PTX: 29800000 instructions simulated : ctaid=(2,18,0) tid=(26,1,0)
GPGPU-Sim PTX: 29900000 instructions simulated : ctaid=(3,17,0) tid=(31,1,0)
GPGPU-Sim PTX: 30000000 instructions simulated : ctaid=(2,7,0) tid=(31,0,0)
GPGPU-Sim uArch: cycles simulated: 61000  inst.: 26726953 (ipc=438.1) sim_rate=61867 (inst/sec) elapsed = 0:0:07:12 / Tue May 12 17:50:08 2015
GPGPU-Sim PTX: 30100000 instructions simulated : ctaid=(1,14,0) tid=(31,0,0)
GPGPU-Sim PTX: 30200000 instructions simulated : ctaid=(0,19,0) tid=(25,2,0)
GPGPU-Sim PTX: 30300000 instructions simulated : ctaid=(3,2,0) tid=(3,1,0)
GPGPU-Sim uArch: cycles simulated: 61500  inst.: 27017317 (ipc=439.3) sim_rate=61824 (inst/sec) elapsed = 0:0:07:17 / Tue May 12 17:50:13 2015
GPGPU-Sim PTX: 30400000 instructions simulated : ctaid=(2,14,0) tid=(2,0,0)
GPGPU-Sim PTX: 30500000 instructions simulated : ctaid=(0,11,0) tid=(26,3,0)
GPGPU-Sim PTX: 30600000 instructions simulated : ctaid=(0,0,0) tid=(21,2,0)
GPGPU-Sim uArch: cycles simulated: 62000  inst.: 27279901 (ipc=440.0) sim_rate=61859 (inst/sec) elapsed = 0:0:07:21 / Tue May 12 17:50:17 2015
GPGPU-Sim PTX: 30700000 instructions simulated : ctaid=(1,3,0) tid=(1,1,0)
GPGPU-Sim PTX: 30800000 instructions simulated : ctaid=(1,18,0) tid=(31,3,0)
GPGPU-Sim PTX: 30900000 instructions simulated : ctaid=(2,17,0) tid=(2,3,0)
GPGPU-Sim uArch: cycles simulated: 62500  inst.: 27545253 (ipc=440.7) sim_rate=61899 (inst/sec) elapsed = 0:0:07:25 / Tue May 12 17:50:21 2015
GPGPU-Sim PTX: 31000000 instructions simulated : ctaid=(1,2,0) tid=(5,1,0)
GPGPU-Sim PTX: 31100000 instructions simulated : ctaid=(2,10,0) tid=(3,0,0)
GPGPU-Sim PTX: 31200000 instructions simulated : ctaid=(2,10,0) tid=(9,0,0)
GPGPU-Sim uArch: cycles simulated: 63000  inst.: 27820756 (ipc=441.6) sim_rate=61823 (inst/sec) elapsed = 0:0:07:30 / Tue May 12 17:50:26 2015
GPGPU-Sim PTX: 31300000 instructions simulated : ctaid=(3,14,0) tid=(29,0,0)
GPGPU-Sim PTX: 31400000 instructions simulated : ctaid=(1,14,0) tid=(29,0,0)
GPGPU-Sim PTX: 31500000 instructions simulated : ctaid=(2,18,0) tid=(1,1,0)
GPGPU-Sim uArch: cycles simulated: 63500  inst.: 28070927 (ipc=442.1) sim_rate=61830 (inst/sec) elapsed = 0:0:07:34 / Tue May 12 17:50:30 2015
GPGPU-Sim PTX: 31600000 instructions simulated : ctaid=(1,18,0) tid=(21,0,0)
GPGPU-Sim PTX: 31700000 instructions simulated : ctaid=(0,13,0) tid=(20,3,0)
GPGPU-Sim PTX: 31800000 instructions simulated : ctaid=(0,19,0) tid=(9,3,0)
GPGPU-Sim uArch: cycles simulated: 64000  inst.: 28358433 (ipc=443.1) sim_rate=61917 (inst/sec) elapsed = 0:0:07:38 / Tue May 12 17:50:34 2015
GPGPU-Sim PTX: 31900000 instructions simulated : ctaid=(2,18,0) tid=(16,1,0)
GPGPU-Sim PTX: 32000000 instructions simulated : ctaid=(1,2,0) tid=(8,3,0)
GPGPU-Sim uArch: cycles simulated: 64500  inst.: 28594985 (ipc=443.3) sim_rate=61893 (inst/sec) elapsed = 0:0:07:42 / Tue May 12 17:50:38 2015
GPGPU-Sim PTX: 32100000 instructions simulated : ctaid=(2,13,0) tid=(11,1,0)
GPGPU-Sim PTX: 32200000 instructions simulated : ctaid=(1,10,0) tid=(31,1,0)
GPGPU-Sim PTX: 32300000 instructions simulated : ctaid=(2,12,0) tid=(29,1,0)
GPGPU-Sim uArch: cycles simulated: 65000  inst.: 28856140 (ipc=443.9) sim_rate=61923 (inst/sec) elapsed = 0:0:07:46 / Tue May 12 17:50:42 2015
GPGPU-Sim PTX: 32400000 instructions simulated : ctaid=(2,12,0) tid=(3,3,0)
GPGPU-Sim PTX: 32500000 instructions simulated : ctaid=(1,9,0) tid=(19,2,0)
GPGPU-Sim PTX: 32600000 instructions simulated : ctaid=(1,6,0) tid=(9,2,0)
GPGPU-Sim PTX: 32700000 instructions simulated : ctaid=(1,22,0) tid=(1,3,0)
GPGPU-Sim uArch: cycles simulated: 65500  inst.: 29134264 (ipc=444.8) sim_rate=61856 (inst/sec) elapsed = 0:0:07:51 / Tue May 12 17:50:47 2015
GPGPU-Sim PTX: 32800000 instructions simulated : ctaid=(2,2,0) tid=(27,1,0)
GPGPU-Sim PTX: 32900000 instructions simulated : ctaid=(3,12,0) tid=(3,0,0)
GPGPU-Sim uArch: cycles simulated: 66000  inst.: 29342485 (ipc=444.6) sim_rate=61903 (inst/sec) elapsed = 0:0:07:54 / Tue May 12 17:50:50 2015
GPGPU-Sim PTX: 33000000 instructions simulated : ctaid=(2,13,0) tid=(31,2,0)
GPGPU-Sim PTX: 33100000 instructions simulated : ctaid=(1,12,0) tid=(20,2,0)
GPGPU-Sim PTX: 33200000 instructions simulated : ctaid=(0,2,0) tid=(3,0,0)
GPGPU-Sim uArch: cycles simulated: 66500  inst.: 29650985 (ipc=445.9) sim_rate=61901 (inst/sec) elapsed = 0:0:07:59 / Tue May 12 17:50:55 2015
GPGPU-Sim PTX: 33300000 instructions simulated : ctaid=(0,9,0) tid=(9,0,0)
GPGPU-Sim PTX: 33400000 instructions simulated : ctaid=(2,1,0) tid=(17,1,0)
GPGPU-Sim PTX: 33500000 instructions simulated : ctaid=(3,14,0) tid=(14,1,0)
GPGPU-Sim uArch: cycles simulated: 67000  inst.: 29910987 (ipc=446.4) sim_rate=61927 (inst/sec) elapsed = 0:0:08:03 / Tue May 12 17:50:59 2015
GPGPU-Sim PTX: 33600000 instructions simulated : ctaid=(1,20,0) tid=(19,1,0)
GPGPU-Sim PTX: 33700000 instructions simulated : ctaid=(2,18,0) tid=(19,0,0)
GPGPU-Sim PTX: 33800000 instructions simulated : ctaid=(3,11,0) tid=(15,0,0)
GPGPU-Sim uArch: cycles simulated: 67500  inst.: 30147852 (ipc=446.6) sim_rate=61905 (inst/sec) elapsed = 0:0:08:07 / Tue May 12 17:51:03 2015
GPGPU-Sim PTX: 33900000 instructions simulated : ctaid=(2,12,0) tid=(0,1,0)
GPGPU-Sim PTX: 34000000 instructions simulated : ctaid=(1,10,0) tid=(9,0,0)
GPGPU-Sim PTX: 34100000 instructions simulated : ctaid=(1,19,0) tid=(13,0,0)
GPGPU-Sim PTX: 34200000 instructions simulated : ctaid=(1,1,0) tid=(27,0,0)
GPGPU-Sim uArch: cycles simulated: 68000  inst.: 30461567 (ipc=448.0) sim_rate=61913 (inst/sec) elapsed = 0:0:08:12 / Tue May 12 17:51:08 2015
GPGPU-Sim PTX: 34300000 instructions simulated : ctaid=(2,15,0) tid=(11,2,0)
GPGPU-Sim PTX: 34400000 instructions simulated : ctaid=(0,8,0) tid=(6,0,0)
GPGPU-Sim uArch: cycles simulated: 68500  inst.: 30686831 (ipc=448.0) sim_rate=61993 (inst/sec) elapsed = 0:0:08:15 / Tue May 12 17:51:11 2015
GPGPU-Sim PTX: 34500000 instructions simulated : ctaid=(1,20,0) tid=(1,1,0)
GPGPU-Sim PTX: 34600000 instructions simulated : ctaid=(1,18,0) tid=(16,2,0)
GPGPU-Sim PTX: 34700000 instructions simulated : ctaid=(2,12,0) tid=(9,0,0)
GPGPU-Sim uArch: cycles simulated: 69000  inst.: 30969319 (ipc=448.8) sim_rate=61938 (inst/sec) elapsed = 0:0:08:20 / Tue May 12 17:51:16 2015
GPGPU-Sim PTX: 34800000 instructions simulated : ctaid=(1,21,0) tid=(15,2,0)
GPGPU-Sim PTX: 34900000 instructions simulated : ctaid=(3,3,0) tid=(24,2,0)
GPGPU-Sim PTX: 35000000 instructions simulated : ctaid=(2,18,0) tid=(22,3,0)
GPGPU-Sim uArch: cycles simulated: 69500  inst.: 31229353 (ipc=449.3) sim_rate=61963 (inst/sec) elapsed = 0:0:08:24 / Tue May 12 17:51:20 2015
GPGPU-Sim PTX: 35100000 instructions simulated : ctaid=(1,14,0) tid=(27,3,0)
GPGPU-Sim PTX: 35200000 instructions simulated : ctaid=(0,22,0) tid=(1,1,0)
GPGPU-Sim PTX: 35300000 instructions simulated : ctaid=(1,6,0) tid=(26,0,0)
GPGPU-Sim uArch: cycles simulated: 70000  inst.: 31476541 (ipc=449.7) sim_rate=61961 (inst/sec) elapsed = 0:0:08:28 / Tue May 12 17:51:24 2015
GPGPU-Sim PTX: 35400000 instructions simulated : ctaid=(0,19,0) tid=(1,0,0)
GPGPU-Sim PTX: 35500000 instructions simulated : ctaid=(1,9,0) tid=(29,1,0)
GPGPU-Sim PTX: 35600000 instructions simulated : ctaid=(0,15,0) tid=(5,3,0)
GPGPU-Sim uArch: cycles simulated: 70500  inst.: 31771129 (ipc=450.7) sim_rate=62052 (inst/sec) elapsed = 0:0:08:32 / Tue May 12 17:51:28 2015
GPGPU-Sim PTX: 35700000 instructions simulated : ctaid=(2,19,0) tid=(13,0,0)
GPGPU-Sim PTX: 35800000 instructions simulated : ctaid=(0,11,0) tid=(19,1,0)
GPGPU-Sim PTX: 35900000 instructions simulated : ctaid=(1,1,0) tid=(5,0,0)
GPGPU-Sim uArch: cycles simulated: 71000  inst.: 31997341 (ipc=450.7) sim_rate=62010 (inst/sec) elapsed = 0:0:08:36 / Tue May 12 17:51:32 2015
GPGPU-Sim PTX: 36000000 instructions simulated : ctaid=(2,11,0) tid=(4,0,0)
GPGPU-Sim PTX: 36100000 instructions simulated : ctaid=(2,13,0) tid=(28,1,0)
GPGPU-Sim PTX: 36200000 instructions simulated : ctaid=(1,19,0) tid=(9,0,0)
GPGPU-Sim uArch: cycles simulated: 71500  inst.: 32253233 (ipc=451.1) sim_rate=62025 (inst/sec) elapsed = 0:0:08:40 / Tue May 12 17:51:36 2015
GPGPU-Sim PTX: 36300000 instructions simulated : ctaid=(2,6,0) tid=(2,1,0)
GPGPU-Sim PTX: 36400000 instructions simulated : ctaid=(2,0,0) tid=(6,1,0)
GPGPU-Sim PTX: 36500000 instructions simulated : ctaid=(2,17,0) tid=(30,0,0)
GPGPU-Sim uArch: cycles simulated: 72000  inst.: 32553029 (ipc=452.1) sim_rate=62005 (inst/sec) elapsed = 0:0:08:45 / Tue May 12 17:51:41 2015
GPGPU-Sim PTX: 36600000 instructions simulated : ctaid=(0,5,0) tid=(29,1,0)
GPGPU-Sim PTX: 36700000 instructions simulated : ctaid=(2,4,0) tid=(25,1,0)
GPGPU-Sim PTX: 36800000 instructions simulated : ctaid=(1,15,0) tid=(19,2,0)
GPGPU-Sim uArch: cycles simulated: 72500  inst.: 32781193 (ipc=452.2) sim_rate=62085 (inst/sec) elapsed = 0:0:08:48 / Tue May 12 17:51:44 2015
GPGPU-Sim PTX: 36900000 instructions simulated : ctaid=(2,14,0) tid=(29,1,0)
GPGPU-Sim PTX: 37000000 instructions simulated : ctaid=(1,7,0) tid=(3,2,0)
GPGPU-Sim PTX: 37100000 instructions simulated : ctaid=(2,19,0) tid=(25,1,0)
GPGPU-Sim uArch: cycles simulated: 73000  inst.: 33050158 (ipc=452.7) sim_rate=62007 (inst/sec) elapsed = 0:0:08:53 / Tue May 12 17:51:49 2015
GPGPU-Sim PTX: 37200000 instructions simulated : ctaid=(1,0,0) tid=(28,2,0)
GPGPU-Sim PTX: 37300000 instructions simulated : ctaid=(3,3,0) tid=(3,3,0)
GPGPU-Sim PTX: 37400000 instructions simulated : ctaid=(1,15,0) tid=(1,2,0)
GPGPU-Sim uArch: cycles simulated: 73500  inst.: 33332705 (ipc=453.5) sim_rate=62072 (inst/sec) elapsed = 0:0:08:57 / Tue May 12 17:51:53 2015
GPGPU-Sim PTX: 37500000 instructions simulated : ctaid=(0,9,0) tid=(14,1,0)
GPGPU-Sim PTX: 37600000 instructions simulated : ctaid=(2,6,0) tid=(29,1,0)
GPGPU-Sim uArch: cycles simulated: 74000  inst.: 33555753 (ipc=453.5) sim_rate=62025 (inst/sec) elapsed = 0:0:09:01 / Tue May 12 17:51:57 2015
GPGPU-Sim PTX: 37700000 instructions simulated : ctaid=(2,4,0) tid=(13,2,0)
GPGPU-Sim PTX: 37800000 instructions simulated : ctaid=(2,5,0) tid=(9,1,0)
GPGPU-Sim PTX: 37900000 instructions simulated : ctaid=(2,8,0) tid=(20,0,0)
GPGPU-Sim PTX: 38000000 instructions simulated : ctaid=(0,8,0) tid=(29,3,0)
[...]
maxdqlatency = 0 
maxmflatency = 1293 
averagemflatency = 285 
max_icnt2mem_latency = 461 
max_icnt2sh_latency = 239191 
mrq_lat_table:42658 	3147 	3545 	10054 	19851 	20480 	16808 	6166 	1386 	36 	0 	0 	0 	0 	0 	0 	0 	0 	0 	0 	0 	0 	0 	0 	0 	0 	0 	0 	0 	0 	0 	0 	
dq_lat_table:0 	0 	0 	0 	0 	0 	0 	0 	0 	0 	0 	0 	0 	0 	0 	0 	0 	0 	0 	0 	0 	0 	0 	0 	0 	0 	0 	0 	0 	0 	0 	0 	
mf_lat_table:0 	0 	0 	0 	0 	0 	0 	75907 	91403 	9006 	145 	0 	0 	0 	0 	0 	0 	0 	0 	0 	0 	0 	0 	0 	0 	0 	0 	0 	0 	0 	0 	0 	
icnt2mem_lat_table:0 	0 	0 	77932 	52430 	37968 	7344 	679 	318 	0 	0 	0 	0 	0 	0 	0 	0 	0 	0 	0 	0 	0 	0 	0 	
icnt2sh_lat_table:0 	0 	0 	21347 	62174 	25868 	822 	0 	0 	0 	0 	0 	740 	3347 	6648 	14875 	31630 	9010 	0 	0 	0 	0 	0 	0 	
mf_lat_pw_table:0 	0 	0 	0 	0 	0 	0 	286 	181 	6 	0 	0 	0 	0 	0 	0 	0 	0 	0 	0 	0 	0 	0 	0 	0 	0 	0 	0 	0 	0 	0 	0 	
maximum concurrent accesses to same row:
dram[0]:        30        25        33        42        35        36        30        46        70        59        48        38        42        29        47        29 
dram[1]:        48        28        40        44        36        30        36        40        69        56        39        39        27        35        42        24 
dram[2]:        42        29        35        43        34        22        40        32        66        65        60        36        26        32        44        29 
dram[3]:        44        28        42        31        36        32        31        30        62        73        36        32        38        32        39        35 
dram[4]:        43        33        59        35        54        25        39        30        61        70        25        35        27        41        34        41 
dram[5]:        46        33        50        34        42        32        38        30        65        68        49        37        31        42        44        31 
maximum service time to same row:
dram[0]:     12049     10912     14485     14851     14069     14102     15396     15520     11682     11692     11343     11400     11696     11638     11954     11547 
dram[1]:     11717     12944     14287     14493     14218     14109     15865     15441     11616     11701     11399     10991     11484     11162     11898     11500 
dram[2]:     12417     12531     14285     14524     14241     14382     16164     15581     11627     11698     11244     10858     11411     11284     11897     11450 
dram[3]:     11703     12907     14500     15029     14206     14294     15772     15404     11730     11704     11344     10794     11616     11528     11921     11416 
dram[4]:     11777     12904     14535     14523     14159     14222     15832     15449     11420     11623     11412     10778     11275     11263     12319     11505 
dram[5]:     11609     12982     14534     14544     14188     14391     15551     15803     11721     11697     10762     10919     11314     11318     11844     11479 
average row accesses per activate:
dram[0]:  3.232911  3.340369  3.112745  3.126551  3.097324  3.239295  3.075117  2.943694  3.509091  3.507692  3.407792  3.310606  3.320413  3.216285  3.321149  3.284615 
dram[1]:  3.262755  3.164588  3.272494  3.120988  3.367725  3.124390  3.223039  3.102625  3.442748  3.465823  3.357868  3.295455  3.401069  3.402145  3.505556  3.181141 
dram[2]:  3.282051  3.304688  3.170426  3.283505  3.287565  3.142157  3.348718  2.905830  3.514286  3.500000  3.500000  3.452381  3.305700  3.159601  3.120098  3.214106 
dram[3]:  3.174129  3.265464  3.070388  3.269923  3.066826  3.310881  3.159806  3.004608  3.397985  3.667553  3.506631  3.360825  3.296104  3.444744  3.239796  3.307292 
dram[4]:  3.127451  3.092458  3.221939  3.139706  3.215539  3.265306  3.175610  3.073634  3.429293  3.497436  3.261084  3.423684  3.231552  3.471390  3.314286  3.317585 
dram[5]:  3.198992  3.087805  3.221939  3.104878  3.264631  3.192020  3.220844  3.117225  3.280872  3.562500  3.437173  3.556757  3.290155  3.654286  3.114355  3.465753 
average row locality = 124131/37917 = 3.273756
number of total memory accesses made:
dram[0]:         0         0         0         0         0         0         0         0         0         0         0         0         0         0         0         0 
dram[1]:         0         0         0         0         0         0         0         0         0         0         0         0         0         0         0         0 
dram[2]:         0         0         0         0         0         0         0         0         0         0         0         0         0         0         0         0 
dram[3]:         0         0         0         0         0         0         0         0         0         0         0         0         0         0         0         0 
dram[4]:         0         0         0         0         0         0         0         0         0         0         0         0         0         0         0         0 
dram[5]:         0         0         0         0         0         0         0         0         0         0         0         0         0         0         0         0 
total accesses: 0
min_bank_accesses = 0!
min_chip_accesses = 0!
number of total read accesses:
dram[0]:       666       662       663       660       670       672       692       702       686       697       674       679       666       658       663       659 
dram[1]:       659       666       664       658       674       669       699       693       694       693       676       681       662       662       656       666 
dram[2]:       662       665       661       664       666       678       694       697       690       695       675       678       670       656       664       657 
dram[3]:       663       662       662       658       676       671       698       693       690       695       674       681       660       663       661       661 
dram[4]:       662       666       657       667       670       676       700       690       694       690       681       672       663       657       662       658 
dram[5]:       665       657       663       657       671       676       695       692       690       695       675       681       664       660       664       658 
total reads: 64609
bank skew: 702/656 = 1.07
chip skew: 10772/10763 = 1.00
number of total write accesses:
dram[0]:       611       604       607       600       603       614       618       605       665       671       638       632       619       606       609       622 
dram[1]:       620       603       609       606       599       612       616       607       659       676       647       624       610       607       606       616 
dram[2]:       618       604       604       610       603       604       612       599       663       684       648       627       606       611       609       619 
dram[3]:       613       605       603       614       609       607       607       611       659       684       648       623       609       615       609       609 
dram[4]:       614       605       606       614       613       604       602       604       664       674       643       629       607       617       614       606 
dram[5]:       605       609       600       616       612       604       603       611       665       673       638       635       606       619       616       607 
total reads: 59522
bank skew: 684/599 = 1.14
chip skew: 9925/9916 = 1.00
average mf latency per bank:
dram[0]:        413       398       394       395       389       405       401       407       397       423       402       415       407       419       416       404
dram[1]:        404       392       402       396       402       402       414       409       403       416       398       402       390       411       404       403
dram[2]:        403       397       402       396       409       395       410       411       407       414       400       411       393       412       395       407
dram[3]:        399       396       401       395       409       399       409       401       414       414       417       404       399       413       398       398
dram[4]:        394       393       405       399       406       399       410       414       409       422       413       418       400       428       394       415
dram[5]:        390       396       409       403       404       404       413       405       407       402       423       410       414       409       399       407
maximum mf latency per bank:
dram[0]:        829       700       807       787       796       766       805       732      1079      1185      1112       930       812       868       865       697
dram[1]:        793       758       846       794       748       746       810       831      1085      1274      1119       914       691       840       953       694
dram[2]:        848       853       934       903       849       689       828       750      1108      1293       881       941       772       733       837       853
dram[3]:        838       833       764       760       835       831       694       742       972      1159       957       801       840       801       688       854
dram[4]:        856       848       862       829       816       700       810       746      1045      1152       929       844       855       851       777       823
dram[5]:        896       787       872       847       799       828       784       686      1106      1126      1009       879       863       826       700       853

Number of Memory Banks Accessed per Memory Operation per Warp (from 0):
0	0	0	0	0	0	0	0	0	0	0	0	0	0	0	0	0	0	0	0	0	0	0	0	0	0	0	0	0	0	0	0	0	0	0	0	0	0	0	0	0	0	0	0	0	0	0	0	0	0	0	0	0	0	0	0	0	0	0	0	0	0	0	0	0	0	0	0	0	0	0	0	0	0	0	0	0	0	0	0	0	0	0	0	0	0	0	0	0	0	0	0	0	0	0	0	
Average # of Memory Banks Accessed per Memory Operation per Warp=-nan

position of mrq chosen
0	0	0	0	0	0	0	0	0	0	0	0	0	0	0	0	

average position of mrq chosen = -nan
Memory Partition 0: 
Cache L2_bank_000:
MSHR contents

Cache L2_bank_001:
MSHR contents

In Dram Latency Queue (total = 0): 
DRAM[0]: 16 bks, busW=4 BL=8 CL=12, tRRD=2 tCCD=6, tRCD=12 tRAS=28 tRP=12 tRC=40
n_cmd=315733 n_nop=266536 n_act=6372 n_pre=6356 n_req=20693 n_rd=21538 n_write=14931 bw_util=0.231
n_activity=206911 dram_eff=0.3525
bk0: 1332a 286122i bk1: 1324a 285129i bk2: 1326a 285037i bk3: 1320a 284527i bk4: 1340a 284509i bk5: 1344a 284404i bk6: 1384a 284022i bk7: 1404a 283963i bk8: 1372a 284934i bk9: 1394a 284376i bk10: 1348a 285213i bk11: 1358a 284193i bk12: 1332a 285345i bk13: 1316a 285465i bk14: 1326a 285131i bk15: 1318a 284810i 
dram_util_bins: 0 0 0 0 0 0 0 0 0 0
dram_eff_bins: 0 0 0 0 0 0 0 0 0 0
mrqq: max=16 avg=3.14651
Memory Partition 1: 
Cache L2_bank_002:
MSHR contents

Cache L2_bank_003:
MSHR contents

In Dram Latency Queue (total = 0): 
DRAM[1]: 16 bks, busW=4 BL=8 CL=12, tRRD=2 tCCD=6, tRCD=12 tRAS=28 tRP=12 tRC=40
n_cmd=315733 n_nop=266713 n_act=6290 n_pre=6274 n_req=20689 n_rd=21544 n_write=14912 bw_util=0.2309
n_activity=206174 dram_eff=0.3536
bk0: 1318a 286452i bk1: 1332a 285292i bk2: 1328a 284781i bk3: 1316a 284754i bk4: 1348a 285388i bk5: 1338a 284522i bk6: 1398a 284262i bk7: 1386a 284651i bk8: 1388a 284805i bk9: 1386a 284182i bk10: 1352a 284544i bk11: 1362a 283841i bk12: 1324a 285865i bk13: 1324a 285315i bk14: 1312a 286303i bk15: 1332a 285235i 
dram_util_bins: 0 0 0 0 0 0 0 0 0 0
dram_eff_bins: 0 0 0 0 0 0 0 0 0 0
mrqq: max=16 avg=3.13208
Memory Partition 2: 
Cache L2_bank_004:
MSHR contents

Cache L2_bank_005:
MSHR contents

In Dram Latency Queue (total = 0): 
DRAM[2]: 16 bks, busW=4 BL=8 CL=12, tRRD=2 tCCD=6, tRCD=12 tRAS=28 tRP=12 tRC=40
n_cmd=315733 n_nop=266620 n_act=6318 n_pre=6302 n_req=20693 n_rd=21544 n_write=14949 bw_util=0.2312
n_activity=208095 dram_eff=0.3507
bk0: 1324a 286511i bk1: 1330a 286517i bk2: 1322a 284858i bk3: 1328a 286236i bk4: 1332a 285761i bk5: 1356a 285158i bk6: 1388a 285919i bk7: 1394a 283943i bk8: 1380a 284777i bk9: 1390a 284164i bk10: 1350a 285472i bk11: 1356a 285161i bk12: 1340a 286028i bk13: 1312a 285256i bk14: 1328a 285011i bk15: 1314a 285033i 
dram_util_bins: 0 0 0 0 0 0 0 0 0 0
dram_eff_bins: 0 0 0 0 0 0 0 0 0 0
mrqq: max=16 avg=3.03369
Memory Partition 3: 
Cache L2_bank_006:
MSHR contents

Cache L2_bank_007:
MSHR contents
MSHR: tag=0x807a0580, atomic=0 1 entries : 0x7ff476da2610 :  mf: uid=866243, sid12:w00, part=3, addr=0x807a0580, load , size=128, unknown  status = IN_PARTITION_DRAM (239188), 

In Dram Latency Queue (total = 0): 
DRAM[3]: 16 bks, busW=4 BL=8 CL=12, tRRD=2 tCCD=6, tRCD=12 tRAS=28 tRP=12 tRC=40
n_cmd=315733 n_nop=266640 n_act=6313 n_pre=6297 n_req=20693 n_rd=21536 n_write=14947 bw_util=0.2311
n_activity=206649 dram_eff=0.3531
bk0: 1326a 285580i bk1: 1324a 285527i bk2: 1324a 285270i bk3: 1316a 285093i bk4: 1352a 285557i bk5: 1342a 285352i bk6: 1396a 284676i bk7: 1386a 284210i bk8: 1380a 284558i bk9: 1390a 284396i bk10: 1348a 285051i bk11: 1362a 285124i bk12: 1320a 285777i bk13: 1326a 285180i bk14: 1322a 285900i bk15: 1322a 285165i 
dram_util_bins: 0 0 0 0 0 0 0 0 0 0
dram_eff_bins: 0 0 0 0 0 0 0 0 0 0
mrqq: max=16 avg=3.10162
Memory Partition 4: 
Cache L2_bank_008:
MSHR contents

Cache L2_bank_009:
MSHR contents

In Dram Latency Queue (total = 0): 
DRAM[4]: 16 bks, busW=4 BL=8 CL=12, tRRD=2 tCCD=6, tRCD=12 tRAS=28 tRP=12 tRC=40
n_cmd=315733 n_nop=266618 n_act=6339 n_pre=6323 n_req=20681 n_rd=21530 n_write=14923 bw_util=0.2309
n_activity=206391 dram_eff=0.3532
bk0: 1324a 285974i bk1: 1332a 285665i bk2: 1314a 285467i bk3: 1334a 285443i bk4: 1340a 284984i bk5: 1352a 285716i bk6: 1400a 285324i bk7: 1380a 283822i bk8: 1388a 284719i bk9: 1380a 284741i bk10: 1362a 284834i bk11: 1344a 284560i bk12: 1326a 284803i bk13: 1314a 285279i bk14: 1324a 285191i bk15: 1316a 285474i 
dram_util_bins: 0 0 0 0 0 0 0 0 0 0
dram_eff_bins: 0 0 0 0 0 0 0 0 0 0
mrqq: max=16 avg=3.18588
Memory Partition 5: 
Cache L2_bank_010:
MSHR contents

Cache L2_bank_011:
MSHR contents

In Dram Latency Queue (total = 0): 
DRAM[5]: 16 bks, busW=4 BL=8 CL=12, tRRD=2 tCCD=6, tRCD=12 tRAS=28 tRP=12 tRC=40
n_cmd=315733 n_nop=266715 n_act=6285 n_pre=6269 n_req=20682 n_rd=21526 n_write=14938 bw_util=0.231
n_activity=206527 dram_eff=0.3531
bk0: 1330a 285298i bk1: 1314a 285757i bk2: 1326a 284665i bk3: 1314a 285639i bk4: 1342a 285848i bk5: 1352a 285151i bk6: 1390a 283961i bk7: 1384a 283734i bk8: 1380a 283594i bk9: 1390a 284604i bk10: 1350a 283871i bk11: 1362a 284898i bk12: 1328a 285724i bk13: 1320a 286671i bk14: 1328a 285231i bk15: 1316a 285658i 
dram_util_bins: 0 0 0 0 0 0 0 0 0 0
dram_eff_bins: 0 0 0 0 0 0 0 0 0 0
mrqq: max=16 avg=3.19356

========= L2 cache stats =========
L2_cache_bank[0]: Access = 14748, Miss = 5380, Miss_rate = 0.365, Pending_hits = 3108, Reservation_fails = 810
L2_cache_bank[1]: Access = 14737, Miss = 5389, Miss_rate = 0.366, Pending_hits = 3014, Reservation_fails = 732
L2_cache_bank[2]: Access = 14740, Miss = 5384, Miss_rate = 0.365, Pending_hits = 3083, Reservation_fails = 637
L2_cache_bank[3]: Access = 14691, Miss = 5388, Miss_rate = 0.367, Pending_hits = 2962, Reservation_fails = 302
L2_cache_bank[4]: Access = 14739, Miss = 5382, Miss_rate = 0.365, Pending_hits = 3047, Reservation_fails = 953
L2_cache_bank[5]: Access = 14695, Miss = 5390, Miss_rate = 0.367, Pending_hits = 2951, Reservation_fails = 381
L2_cache_bank[6]: Access = 14739, Miss = 5384, Miss_rate = 0.365, Pending_hits = 3009, Reservation_fails = 666
L2_cache_bank[7]: Access = 14701, Miss = 5384, Miss_rate = 0.366, Pending_hits = 3027, Reservation_fails = 92
L2_cache_bank[8]: Access = 14742, Miss = 5389, Miss_rate = 0.366, Pending_hits = 3009, Reservation_fails = 591
L2_cache_bank[9]: Access = 14693, Miss = 5376, Miss_rate = 0.366, Pending_hits = 3067, Reservation_fails = 491
L2_cache_bank[10]: Access = 14736, Miss = 5387, Miss_rate = 0.366, Pending_hits = 2999, Reservation_fails = 413
L2_cache_bank[11]: Access = 14710, Miss = 5376, Miss_rate = 0.365, Pending_hits = 3067, Reservation_fails = 10
L2_total_cache_accesses = 176671
L2_total_cache_misses = 64609
L2_total_cache_miss_rate = 0.3657
L2_total_cache_pending_hits = 36343
L2_total_cache_reservation_fails = 6078
L2_total_cache_breakdown:
	L2_cache_stats_breakdown[GLOBAL_ACC_R][HIT] = 57022
	L2_cache_stats_breakdown[GLOBAL_ACC_R][HIT_RESERVED] = 20528
	L2_cache_stats_breakdown[GLOBAL_ACC_R][MISS] = 32646
	L2_cache_stats_breakdown[GLOBAL_ACC_R][RESERVATION_FAIL] = 4604
	L2_cache_stats_breakdown[CONST_ACC_R][HIT] = 11
	L2_cache_stats_breakdown[CONST_ACC_R][HIT_RESERVED] = 3
	L2_cache_stats_breakdown[CONST_ACC_R][MISS] = 1
	L2_cache_stats_breakdown[CONST_ACC_R][RESERVATION_FAIL] = 109
	L2_cache_stats_breakdown[GLOBAL_ACC_W][HIT] = 18532
	L2_cache_stats_breakdown[GLOBAL_ACC_W][HIT_RESERVED] = 15770
	L2_cache_stats_breakdown[GLOBAL_ACC_W][MISS] = 31948
	L2_cache_stats_breakdown[GLOBAL_ACC_W][RESERVATION_FAIL] = 170
	L2_cache_stats_breakdown[INST_ACC_R][HIT] = 154
	L2_cache_stats_breakdown[INST_ACC_R][HIT_RESERVED] = 42
	L2_cache_stats_breakdown[INST_ACC_R][MISS] = 14
	L2_cache_stats_breakdown[INST_ACC_R][RESERVATION_FAIL] = 1195
L2_cache_data_port_util = 0.106
L2_cache_fill_port_util = 0.090

icnt_total_pkts_mem_to_simt=618325
icnt_total_pkts_simt_to_mem=336671
LD_mem_lat_dist  0 0 0 0 0 0 0 0 0 0 0 0 0 0 0 0 0 0 0 0 0 0 0 0 0 0 0
ST_mem_lat_dist  0 0 0 0 0 0 0 0 0 0 0 0 0 0 0 0 0 0 0 0 0 0 0 0 0 0 0
----------------------------Interconnect-DETAILS--------------------------------
Class 0:
Packet latency average = 19.6902
	minimum = 6
	maximum = 394
Network latency average = 15.4443
	minimum = 6
	maximum = 365
Slowest packet = 5516
Flit latency average = 13.2139
	minimum = 6
	maximum = 365
Slowest flit = 15865
Fragmentation average = 0.00510271
	minimum = 0
	maximum = 240
Injected packet rate average = 0.0547123
	minimum = 0.0427314 (at node 13)
	maximum = 0.0616576 (at node 15)
Accepted packet rate average = 0.0547123
	minimum = 0.0427314 (at node 13)
	maximum = 0.0616576 (at node 15)
Injected flit rate average = 0.147874
	minimum = 0.0795219 (at node 13)
	maximum = 0.215835 (at node 23)
Accepted flit rate average= 0.147874
	minimum = 0.117153 (at node 24)
	maximum = 0.196487 (at node 12)
Injected packet length average = 2.70275
Accepted packet length average = 2.70275
Total in-flight flits = 0 (0 measured)
====== Overall Traffic Statistics ======
====== Traffic class 0 ======
Packet latency average = 19.6902 (1 samples)
	minimum = 6 (1 samples)
	maximum = 394 (1 samples)
Network latency average = 15.4443 (1 samples)
	minimum = 6 (1 samples)
	maximum = 365 (1 samples)
Flit latency average = 13.2139 (1 samples)
	minimum = 6 (1 samples)
	maximum = 365 (1 samples)
Fragmentation average = 0.00510271 (1 samples)
	minimum = 0 (1 samples)
	maximum = 240 (1 samples)
Injected packet rate average = 0.0547123 (1 samples)
	minimum = 0.0427314 (1 samples)
	maximum = 0.0616576 (1 samples)
Accepted packet rate average = 0.0547123 (1 samples)
	minimum = 0.0427314 (1 samples)
	maximum = 0.0616576 (1 samples)
Injected flit rate average = 0.147874 (1 samples)
	minimum = 0.0795219 (1 samples)
	maximum = 0.215835 (1 samples)
Accepted flit rate average = 0.147874 (1 samples)
	minimum = 0.117153 (1 samples)
	maximum = 0.196487 (1 samples)
Injected packet size average = 2.70275 (1 samples)
Accepted packet size average = 2.70275 (1 samples)
Hops average = 1 (1 samples)
----------------------------END-of-Interconnect-DETAILS-------------------------


gpgpu_simulation_time = 0 days, 0 hrs, 18 min, 46 sec (1126 sec)
gpgpu_simulation_rate = 64575 (inst/sec)
gpgpu_simulation_rate = 212 (cycle/sec)
GPGPU-Sim: synchronize waiting for inactive GPU simulation
GPGPU-Sim API: Stream Manager State
GPGPU-Sim: detected inactive GPU simulation thread

1x GPU_laplace3d: 1125746.125000 (ms) 

Copy u2 to host: 423.540009 (ms) 

1x Gold_laplace3d: 4.603000 (ms) 
 

 rms error = 0.000000 
CUDA_SAFE_CALL( cudaFree(d_u1) );
CUDA_SAFE_CALL( cudaFree(d_u2) );
free(h_u1);
free(h_u2);
free(h_u3);

Press ENTER to exit...
