

        *** GPGPU-Sim Simulator Version 3.2.2  [build 0] ***


GPGPU-Sim PTX: simulation mode 0 (can change with PTX_SIM_MODE_FUNC environment variable:
               1=functional simulation only, 0=detailed performance simulator)
GPGPU-Sim: Configuration options:

-network_mode                           1 # Interconnection network mode
-inter_config_file   config_fermi_islip.icnt # Interconnection network config file
-gpgpu_ptx_use_cuobjdump                    1 # Use cuobjdump to extract ptx and sass from binaries
-gpgpu_experimental_lib_support                    0 # Try to extract code from cuda libraries [Broken because of unknown cudaGetExportTable]
-gpgpu_ptx_convert_to_ptxplus                    0 # Convert SASS (native ISA) to ptxplus and run ptxplus
-gpgpu_ptx_force_max_capability                   20 # Force maximum compute capability
-gpgpu_ptx_inst_debug_to_file                    0 # Dump executed instructions' debug information to file
-gpgpu_ptx_inst_debug_file       inst_debug.txt # Executed instructions' debug output file
-gpgpu_ptx_inst_debug_thread_uid                    1 # Thread UID for executed instructions' debug output
-gpgpu_simd_model                       1 # 1 = post-dominator
-gpgpu_shader_core_pipeline              1536:32 # shader core pipeline config, i.e., {<nthread>:<warpsize>}
-gpgpu_tex_cache:l1  4:128:24,L:R:m:N:L,F:128:4,128:2 # per-shader L1 texture cache  (READ-ONLY) config  {<nsets>:<bsize>:<assoc>,<rep>:<wr>:<alloc>:<wr_alloc>,<mshr>:<N>:<merge>,<mq>:<rf>}
-gpgpu_const_cache:l1 64:64:2,L:R:f:N:L,A:2:32,4 # per-shader L1 constant memory cache  (READ-ONLY) config  {<nsets>:<bsize>:<assoc>,<rep>:<wr>:<alloc>:<wr_alloc>,<mshr>:<N>:<merge>,<mq>} 
-gpgpu_cache:il1     4:128:4,L:R:f:N:L,A:2:32,4 # shader L1 instruction cache config  {<nsets>:<bsize>:<assoc>,<rep>:<wr>:<alloc>:<wr_alloc>,<mshr>:<N>:<merge>,<mq>} 
-gpgpu_cache:dl1     32:128:4,L:L:m:N:H,A:32:8,8 # per-shader L1 data cache config  {<nsets>:<bsize>:<assoc>,<rep>:<wr>:<alloc>:<wr_alloc>,<mshr>:<N>:<merge>,<mq> | none}
-gpgpu_cache:dl1PrefL1                 none # per-shader L1 data cache config  {<nsets>:<bsize>:<assoc>,<rep>:<wr>:<alloc>:<wr_alloc>,<mshr>:<N>:<merge>,<mq> | none}
-gpgpu_cache:dl1PreShared                 none # per-shader L1 data cache config  {<nsets>:<bsize>:<assoc>,<rep>:<wr>:<alloc>:<wr_alloc>,<mshr>:<N>:<merge>,<mq> | none}
-gmem_skip_L1D                          0 # global memory access skip L1D cache (implements -Xptxas -dlcm=cg, default=no skip)
-gpgpu_perfect_mem                      0 # enable perfect memory mode (no cache miss)
-n_regfile_gating_group                    4 # group of lanes that should be read/written together)
-gpgpu_clock_gated_reg_file                    0 # enable clock gated reg file for power calculations
-gpgpu_clock_gated_lanes                    0 # enable clock gated lanes for power calculations
-gpgpu_shader_registers                32768 # Number of registers per shader core. Limits number of concurrent CTAs. (default 8192)
-gpgpu_shader_cta                       8 # Maximum number of concurrent CTAs in shader (default 8)
-gpgpu_num_cta_barriers                   16 # Maximum number of named barriers per CTA (default 16)
-gpgpu_n_clusters                      15 # number of processing clusters
-gpgpu_n_cores_per_cluster                    1 # number of simd cores per cluster
-gpgpu_n_cluster_ejection_buffer_size                    8 # number of packets in ejection buffer
-gpgpu_n_ldst_response_buffer_size                    2 # number of response packets in ld/st unit ejection buffer
-gpgpu_shmem_size                   16384 # Size of shared memory per shader core (default 16kB)
-gpgpu_shmem_size                   49152 # Size of shared memory per shader core (default 16kB)
-gpgpu_shmem_size_PrefL1                16384 # Size of shared memory per shader core (default 16kB)
-gpgpu_shmem_size_PrefShared                16384 # Size of shared memory per shader core (default 16kB)
-gpgpu_shmem_num_banks                   32 # Number of banks in the shared memory in each shader core (default 16)
-gpgpu_shmem_limited_broadcast                    0 # Limit shared memory to do one broadcast per cycle (default on)
-gpgpu_shmem_warp_parts                    1 # Number of portions a warp is divided into for shared memory bank conflict check 
-gpgpu_warpdistro_shader                   -1 # Specify which shader core to collect the warp size distribution from
-gpgpu_warp_issue_shader                    0 # Specify which shader core to collect the warp issue distribution from
-gpgpu_local_mem_map                    1 # Mapping from local memory space address to simulated GPU physical address space (default = enabled)
-gpgpu_num_reg_banks                   16 # Number of register banks (default = 8)
-gpgpu_reg_bank_use_warp_id                    0 # Use warp ID in mapping registers to banks (default = off)
-gpgpu_operand_collector_num_units_sp                    6 # number of collector units (default = 4)
-gpgpu_operand_collector_num_units_sfu                    8 # number of collector units (default = 4)
-gpgpu_operand_collector_num_units_mem                    2 # number of collector units (default = 2)
-gpgpu_operand_collector_num_units_gen                    0 # number of collector units (default = 0)
-gpgpu_operand_collector_num_in_ports_sp                    2 # number of collector unit in ports (default = 1)
-gpgpu_operand_collector_num_in_ports_sfu                    1 # number of collector unit in ports (default = 1)
-gpgpu_operand_collector_num_in_ports_mem                    1 # number of collector unit in ports (default = 1)
-gpgpu_operand_collector_num_in_ports_gen                    0 # number of collector unit in ports (default = 0)
-gpgpu_operand_collector_num_out_ports_sp                    2 # number of collector unit in ports (default = 1)
-gpgpu_operand_collector_num_out_ports_sfu                    1 # number of collector unit in ports (default = 1)
-gpgpu_operand_collector_num_out_ports_mem                    1 # number of collector unit in ports (default = 1)
-gpgpu_operand_collector_num_out_ports_gen                    0 # number of collector unit in ports (default = 0)
-gpgpu_coalesce_arch                   13 # Coalescing arch (default = 13, anything else is off for now)
-gpgpu_num_sched_per_core                    1 # Number of warp schedulers per core
-gpgpu_max_insn_issue_per_warp                    1 # Max number of instructions that can be issued per warp in one cycle by scheduler
-gpgpu_simt_core_sim_order                    1 # Select the simulation order of cores in a cluster (0=Fix, 1=Round-Robin)
-gpgpu_pipeline_widths        2,1,1,2,1,1,2 # Pipeline widths ID_OC_SP,ID_OC_SFU,ID_OC_MEM,OC_EX_SP,OC_EX_SFU,OC_EX_MEM,EX_WB
-gpgpu_num_sp_units                     2 # Number of SP units (default=1)
-gpgpu_num_sfu_units                    1 # Number of SF units (default=1)
-gpgpu_num_mem_units                    1 # Number if ldst units (default=1) WARNING: not hooked up to anything
-gpgpu_scheduler                      gto # Scheduler configuration: < lrr | gto | two_level_active > If two_level_active:<num_active_warps>:<inner_prioritization>:<outer_prioritization>For complete list of prioritization values see shader.h enum scheduler_prioritization_typeDefault: gto
-gpgpu_dram_scheduler                    1 # 0 = fifo, 1 = FR-FCFS (defaul)
-gpgpu_dram_partition_queues              8:8:8:8 # i2$:$2d:d2$:$2i
-l2_ideal                               0 # Use a ideal L2 cache that always hit
-gpgpu_cache:dl2     64:128:8,L:B:m:W:L,A:32:4,4:0,32 # unified banked L2 data cache config  {<nsets>:<bsize>:<assoc>,<rep>:<wr>:<alloc>:<wr_alloc>,<mshr>:<N>:<merge>,<mq>}
-gpgpu_cache:dl2_texture_only                    0 # L2 cache used for texture only
-gpgpu_n_mem                            6 # number of memory modules (e.g. memory controllers) in gpu
-gpgpu_n_sub_partition_per_mchannel                    2 # number of memory subpartition in each memory module
-gpgpu_n_mem_per_ctrlr                    2 # number of memory chips per memory controller
-gpgpu_memlatency_stat                   14 # track and display latency statistics 0x2 enables MC, 0x4 enables queue logs
-gpgpu_frfcfs_dram_sched_queue_size                   16 # 0 = unlimited (default); # entries per chip
-gpgpu_dram_return_queue_size                  116 # 0 = unlimited (default); # entries per chip
-gpgpu_dram_buswidth                    4 # default = 4 bytes (8 bytes per cycle at DDR)
-gpgpu_dram_burst_length                    8 # Burst length of each DRAM request (default = 4 data bus cycle)
-dram_data_command_freq_ratio                    4 # Frequency ratio between DRAM data bus and command bus (default = 2 times, i.e. DDR)
-gpgpu_dram_timing_opt nbk=16:CCD=2:RRD=6:RCD=12:RAS=28:RP=12:RC=40: CL=12:WL=4:CDLR=5:WR=12:nbkgrp=4:CCDL=3:RTPL=2 # DRAM timing parameters = {nbk:tCCD:tRRD:tRCD:tRAS:tRP:tRC:CL:WL:tCDLR:tWR:nbkgrp:tCCDL:tRTPL}
-rop_latency                          120 # ROP queue latency (default 85)
-dram_latency                         100 # DRAM latency (default 30)
-gpgpu_mem_addr_mapping dramid@8;00000000.00000000.00000000.00000000.0000RRRR.RRRRRRRR.BBBCCCCB.CCSSSSSS # mapping memory address to dram model {dramid@<start bit>;<memory address map>}
-gpgpu_mem_addr_test                    0 # run sweep test to check address mapping for aliased address
-gpgpu_mem_address_mask                    1 # 0 = old addressing mask, 1 = new addressing mask, 2 = new add. mask + flipped bank sel and chip sel bits
-gpuwattch_xml_file  gpuwattch_gtx480.xml # GPUWattch XML file
-power_simulation_enabled                    1 # Turn on power simulator (1=On, 0=Off)
-power_per_cycle_dump                    0 # Dump detailed power output each cycle
-power_trace_enabled                    0 # produce a file for the power trace (1=On, 0=Off)
-power_trace_zlevel                     6 # Compression level of the power trace output log (0=no comp, 9=highest)
-steady_power_levels_enabled                    0 # produce a file for the steady power levels (1=On, 0=Off)
-steady_state_definition                  8:4 # allowed deviation:number of samples
-gpgpu_max_cycle                        0 # terminates gpu simulation early (0 = no limit)
-gpgpu_max_insn                         0 # terminates gpu simulation early (0 = no limit)
-gpgpu_max_cta                          0 # terminates gpu simulation early (0 = no limit)
-gpgpu_runtime_stat                   500 # display runtime statistics such as dram utilization {<freq>:<flag>}
-liveness_message_freq                    1 # Minimum number of seconds between simulation liveness messages (0 = always print)
-gpgpu_flush_l1_cache                    0 # Flush L1 cache at the end of each kernel call
-gpgpu_flush_l2_cache                    0 # Flush L2 cache at the end of each kernel call
-gpgpu_deadlock_detect                    1 # Stop the simulation at deadlock (1=on (default), 0=off)
-gpgpu_ptx_instruction_classification                    0 # if enabled will classify ptx instruction types per kernel (Max 255 kernels now)
-gpgpu_ptx_sim_mode                     0 # Select between Performance (default) or Functional simulation (1)
-gpgpu_clock_domains 700.0:700.0:700.0:924.0 # Clock Domain Frequencies in MhZ {<Core Clock>:<ICNT Clock>:<L2 Clock>:<DRAM Clock>}
-gpgpu_max_concurrent_kernel                    8 # maximum kernels that can run concurrently on GPU
-gpgpu_cflog_interval                    0 # Interval between each snapshot in control flow logger
-visualizer_enabled                     0 # Turn on visualizer output (1=On, 0=Off)
-visualizer_outputfile                 NULL # Specifies the output log file for visualizer
-visualizer_zlevel                      6 # Compression level of the visualizer output log (0=no comp, 9=highest)
-trace_enabled                          0 # Turn on traces
-trace_components                    none # comma seperated list of traces to enable. Complete list found in trace_streams.tup. Default none
-trace_sampling_core                    0 # The core which is printed using CORE_DPRINTF. Default 0
-trace_sampling_memory_partition                   -1 # The memory partition which is printed using MEMPART_DPRINTF. Default -1 (i.e. all)
-enable_ptx_file_line_stats                    1 # Turn on PTX source line statistic profiling. (1 = On)
-ptx_line_stats_filename gpgpu_inst_stats.txt # Output file for PTX source line statistics.
-save_embedded_ptx                      0 # saves ptx files embedded in binary as <n>.ptx
-keep                                   0 # keep intermediate files created by GPGPU-Sim when interfacing with external programs
-gpgpu_ptx_save_converted_ptxplus                    0 # Saved converted ptxplus to a file
-ptx_opcode_latency_int         4,13,4,5,145 # Opcode latencies for integers <ADD,MAX,MUL,MAD,DIV>Default 1,1,19,25,145
-ptx_opcode_latency_fp          4,13,4,5,39 # Opcode latencies for single precision floating points <ADD,MAX,MUL,MAD,DIV>Default 1,1,1,1,30
-ptx_opcode_latency_dp         8,19,8,8,330 # Opcode latencies for double precision floating points <ADD,MAX,MUL,MAD,DIV>Default 8,8,8,8,335
-ptx_opcode_initiation_int            1,2,2,1,8 # Opcode initiation intervals for integers <ADD,MAX,MUL,MAD,DIV>Default 1,1,4,4,32
-ptx_opcode_initiation_fp            1,2,1,1,4 # Opcode initiation intervals for single precision floating points <ADD,MAX,MUL,MAD,DIV>Default 1,1,1,1,5
-ptx_opcode_initiation_dp         8,16,8,8,130 # Opcode initiation intervals for double precision floating points <ADD,MAX,MUL,MAD,DIV>Default 8,8,8,8,130
DRAM Timing Options:
nbk                                    16 # number of banks
CCD                                     2 # column to column delay
RRD                                     6 # minimal delay between activation of rows in different banks
RCD                                    12 # row to column delay
RAS                                    28 # time needed to activate row
RP                                     12 # time needed to precharge (deactivate) row
RC                                     40 # row cycle time
CDLR                                    5 # switching from write to read (changes tWTR)
WR                                     12 # last data-in to row precharge
CL                                     12 # CAS latency
WL                                      4 # Write latency
nbkgrp                                  4 # number of bank groups
CCDL                                    3 # column to column delay between accesses to different bank groups
RTPL                                    2 # read to precharge delay between accesses to different bank groups
Total number of memory sub partition = 12
addr_dec_mask[CHIP]  = 0000000000000000 	high:64 low:0
addr_dec_mask[BK]    = 000000000000e100 	high:16 low:8
addr_dec_mask[ROW]   = 000000000fff0000 	high:28 low:16
addr_dec_mask[COL]   = 0000000000001eff 	high:13 low:0
addr_dec_mask[BURST] = 000000000000003f 	high:6 low:0
sub_partition_id_mask = 0000000000000100
GPGPU-Sim uArch: clock freqs: 700000000.000000:700000000.000000:700000000.000000:924000000.000000
GPGPU-Sim uArch: clock periods: 0.00000000142857142857:0.00000000142857142857:0.00000000142857142857:0.00000000108225108225
*** Initializing Memory Statistics ***
GPGPU-Sim uArch: interconnect node map (shaderID+MemID to icntID)
GPGPU-Sim uArch: Memory nodes ID start from index: 15
GPGPU-Sim uArch:    0   1   2   3   4
GPGPU-Sim uArch:    5   6   7   8   9
GPGPU-Sim uArch:   10  11  12  13  14
GPGPU-Sim uArch:   15  16  17  18  19
GPGPU-Sim uArch:   20  21  22  23  24
GPGPU-Sim uArch:   25  26
GPGPU-Sim uArch: interconnect node reverse map (icntID to shaderID+MemID)
GPGPU-Sim uArch: Memory nodes start from ID: 15
GPGPU-Sim uArch:    0   1   2   3   4
GPGPU-Sim uArch:    5   6   7   8   9
GPGPU-Sim uArch:   10  11  12  13  14
GPGPU-Sim uArch:   15  16  17  18  19
GPGPU-Sim uArch:   20  21  22  23  24
GPGPU-Sim uArch:   25  26
7c3d5ae41cea1e926c25170af925835d  /home/kishore/project_source/gpu_class_proj/gpgpusim-benchmarks-master/bin/release/LPS
GPGPU-Sim uArch: performance model initialization complete.
GPGPU-Sim PTX: __cudaRegisterFatBinary, fat_cubin_handle = 1, filename=laplace3d.cu
self exe links to: /home/kishore/project_source/gpu_class_proj/gpgpusim-benchmarks-master/bin/release/LPS
Running md5sum using "md5sum /home/kishore/project_source/gpu_class_proj/gpgpusim-benchmarks-master/bin/release/LPS "
Running cuobjdump using "$CUDA_INSTALL_PATH/bin/cuobjdump -ptx -elf -sass /home/kishore/project_source/gpu_class_proj/gpgpusim-benchmarks-master/bin/release/LPS > _cuobjdump_complete_output_RiRWEa"
Parsing file _cuobjdump_complete_output_RiRWEa
######### cuobjdump parser ########
## Adding new section PTX
Adding ptx filename: _cuobjdump_1.ptx
Adding arch: sm_10
Adding identifier: laplace3d.cu
## Adding new section ELF
Adding arch: sm_10
Adding identifier: laplace3d.cu
## Adding new section ELF
Adding arch: sm_20
Adding identifier: laplace3d.cu
## Adding new section PTX
Adding ptx filename: _cuobjdump_2.ptx
Adding arch: sm_20
Adding identifier: laplace3d.cu
Done parsing!!!
GPGPU-Sim PTX: __cudaRegisterFunction _Z13GPU_laplace3diiiiPfS_ : hostFun 0x0x403bc0, fat_cubin_handle = 1
GPGPU-Sim PTX: allocating shared region for "__cuda___cuda_local_var_34196_33_non_const_u132" from 0x0 to 0x990 (shared memory space)
GPGPU-Sim PTX: instruction assembly for function '_Z13GPU_laplace3diiiiPfS_'...   done.
GPGPU-Sim PTX: finding reconvergence points for '_Z13GPU_laplace3diiiiPfS_'...
GPGPU-Sim PTX: Finding dominators for '_Z13GPU_laplace3diiiiPfS_'...
GPGPU-Sim PTX: Finding immediate dominators for '_Z13GPU_laplace3diiiiPfS_'...
GPGPU-Sim PTX: Finding postdominators for '_Z13GPU_laplace3diiiiPfS_'...
GPGPU-Sim PTX: Finding immediate postdominators for '_Z13GPU_laplace3diiiiPfS_'...
GPGPU-Sim PTX: pre-decoding instructions for '_Z13GPU_laplace3diiiiPfS_'...
GPGPU-Sim PTX: reconvergence points for _Z13GPU_laplace3diiiiPfS_...
GPGPU-Sim PTX:  1 (potential) branch divergence @  PC=0x060 (_1.ptx:82) @!%p1 bra $Lt_0_14338;
GPGPU-Sim PTX:    immediate post dominator      @  PC=0x230 (_1.ptx:154) add.s32 %r57, %r37, %r12;
GPGPU-Sim PTX:  2 (potential) branch divergence @  PC=0x080 (_1.ptx:86) @%p2 bra $Lt_0_14850;
GPGPU-Sim PTX:    immediate post dominator      @  PC=0x120 (_1.ptx:113) add.s32 %r30, %r16, 1;
GPGPU-Sim PTX:  3 (potential) branch divergence @  PC=0x0a0 (_1.ptx:92) bra.uni $Lt_0_14594;
GPGPU-Sim PTX:    immediate post dominator      @  PC=0x120 (_1.ptx:113) add.s32 %r30, %r16, 1;
GPGPU-Sim PTX:  4 (potential) branch divergence @  PC=0x200 (_1.ptx:145) bra.uni $Lt_0_14082;
GPGPU-Sim PTX:    immediate post dominator      @  PC=0x230 (_1.ptx:154) add.s32 %r57, %r37, %r12;
GPGPU-Sim PTX:  5 (potential) branch divergence @  PC=0x290 (_1.ptx:166) @%p5 bra $Lt_0_15106;
GPGPU-Sim PTX:    immediate post dominator      @  PC=0x308 (_1.ptx:183) mov.u64 %rd1, __cuda___cuda_local_var_34196_33_non_const_u132;
GPGPU-Sim PTX:  6 (potential) branch divergence @  PC=0x320 (_1.ptx:186) @!%p6 bra $Lt_0_15618;
GPGPU-Sim PTX:    immediate post dominator      @  PC=0x380 (_1.ptx:200) ld.param.s32 %r73, [__cudaparm__Z13GPU_laplace3diiiiPfS__NZ];
GPGPU-Sim PTX:  7 (potential) branch divergence @  PC=0x398 (_1.ptx:203) @%p7 bra $Lt_0_16130;
GPGPU-Sim PTX:    immediate post dominator      @  PC=0x6d8 (_1.ptx:335) exit;
GPGPU-Sim PTX:  8 (potential) branch divergence @  PC=0x408 (_1.ptx:219) @%p8 bra $Lt_0_17410;
GPGPU-Sim PTX:    immediate post dominator      @  PC=0x4a0 (_1.ptx:245) @!%p6 bra $Lt_0_18434;
GPGPU-Sim PTX:  9 (potential) branch divergence @  PC=0x468 (_1.ptx:235) @%p9 bra $Lt_0_17410;
GPGPU-Sim PTX:    immediate post dominator      @  PC=0x4a0 (_1.ptx:245) @!%p6 bra $Lt_0_18434;
GPGPU-Sim PTX: 10 (potential) branch divergence @  PC=0x4a0 (_1.ptx:245) @!%p6 bra $Lt_0_18434;
GPGPU-Sim PTX:    immediate post dominator      @  PC=0x548 (_1.ptx:273) bar.sync 0;
GPGPU-Sim PTX: 11 (potential) branch divergence @  PC=0x510 (_1.ptx:262) @%p10 bra $Lt_0_18434;
GPGPU-Sim PTX:    immediate post dominator      @  PC=0x548 (_1.ptx:273) bar.sync 0;
GPGPU-Sim PTX: 12 (potential) branch divergence @  PC=0x560 (_1.ptx:276) @%p11 bra $Lt_0_18946;
GPGPU-Sim PTX:    immediate post dominator      @  PC=0x6b8 (_1.ptx:329) bar.sync 0;
GPGPU-Sim PTX: 13 (potential) branch divergence @  PC=0x578 (_1.ptx:280) @%p12 bra $Lt_0_20738;
GPGPU-Sim PTX:    immediate post dominator      @  PC=0x688 (_1.ptx:321) ld.param.u64 %rd35, [__cudaparm__Z13GPU_laplace3diiiiPfS__d_u2];
GPGPU-Sim PTX: 14 (potential) branch divergence @  PC=0x588 (_1.ptx:282) @%p13 bra $Lt_0_20738;
GPGPU-Sim PTX:    immediate post dominator      @  PC=0x688 (_1.ptx:321) ld.param.u64 %rd35, [__cudaparm__Z13GPU_laplace3diiiiPfS__d_u2];
GPGPU-Sim PTX: 15 (potential) branch divergence @  PC=0x5a0 (_1.ptx:285) @%p14 bra $Lt_0_20738;
GPGPU-Sim PTX:    immediate post dominator      @  PC=0x688 (_1.ptx:321) ld.param.u64 %rd35, [__cudaparm__Z13GPU_laplace3diiiiPfS__d_u2];
GPGPU-Sim PTX: 16 (potential) branch divergence @  PC=0x5b0 (_1.ptx:287) @%p15 bra $Lt_0_20738;
GPGPU-Sim PTX:    immediate post dominator      @  PC=0x688 (_1.ptx:321) ld.param.u64 %rd35, [__cudaparm__Z13GPU_laplace3diiiiPfS__d_u2];
GPGPU-Sim PTX: 17 (potential) branch divergence @  PC=0x5c8 (_1.ptx:290) @%p16 bra $Lt_0_20738;
GPGPU-Sim PTX:    immediate post dominator      @  PC=0x688 (_1.ptx:321) ld.param.u64 %rd35, [__cudaparm__Z13GPU_laplace3diiiiPfS__d_u2];
GPGPU-Sim PTX: 18 (potential) branch divergence @  PC=0x5d8 (_1.ptx:292) @%p17 bra $L_0_12546;
GPGPU-Sim PTX:    immediate post dominator      @  PC=0x688 (_1.ptx:321) ld.param.u64 %rd35, [__cudaparm__Z13GPU_laplace3diiiiPfS__d_u2];
GPGPU-Sim PTX: 19 (potential) branch divergence @  PC=0x600 (_1.ptx:300) bra.uni $L_0_12290;
GPGPU-Sim PTX:    immediate post dominator      @  PC=0x688 (_1.ptx:321) ld.param.u64 %rd35, [__cudaparm__Z13GPU_laplace3diiiiPfS__d_u2];
GPGPU-Sim PTX: 20 (potential) branch divergence @  PC=0x6d0 (_1.ptx:332) @%p18 bra $Lt_0_16642;
GPGPU-Sim PTX:    immediate post dominator      @  PC=0x6d8 (_1.ptx:335) exit;
GPGPU-Sim PTX: ... end of reconvergence points for _Z13GPU_laplace3diiiiPfS_
GPGPU-Sim PTX: ... done pre-decoding instructions for '_Z13GPU_laplace3diiiiPfS_'.
GPGPU-Sim PTX: finished parsing EMBEDDED .ptx file _1.ptx
Adding _cuobjdump_2.ptx with cubin handle 1
GPGPU-Sim PTX: extracting embedded .ptx to temporary file "_ptx_8hKnBr"
Running: cat _ptx_8hKnBr | sed 's/.version 1.5/.version 1.4/' | sed 's/, texmode_independent//' | sed 's/\(\.extern \.const\[1\] .b8 \w\+\)\[\]/\1\[1\]/' | sed 's/const\[.\]/const\[0\]/g' > _ptx2_tRxQxI
GPGPU-Sim PTX: generating ptxinfo using "$CUDA_INSTALL_PATH/bin/ptxas --gpu-name=sm_20 -v _ptx2_tRxQxI --output-file  /dev/null 2> _ptx_8hKnBrinfo"
GPGPU-Sim PTX: Kernel '_Z13GPU_laplace3diiiiPfS_' : regs=17, lmem=0, smem=2448, cmem=64
GPGPU-Sim PTX: removing ptxinfo using "rm -f _ptx_8hKnBr _ptx2_tRxQxI _ptx_8hKnBrinfo"
GPGPU-Sim PTX: loading globals with explicit initializers... 
GPGPU-Sim PTX: finished loading globals (0 bytes total).
GPGPU-Sim PTX: loading constants with explicit initializers...  done.

Grid dimensions: 100 x 100 x 100
GPGPU-Sim PTX: cudaMallocPitch (width = 400)
GPGPU-Sim PTX: cudaMallocPitch (width = 400)
GPGPU-Sim: synchronize waiting for inactive GPU simulation
GPGPU-Sim API: Stream Manager State
GPGPU-Sim: detected inactive GPU simulation thread

Copy u1 to device: 579.068970 (ms) 

 dimGrid  = 4 25 1 
 dimBlock = 32 4 1 
GPGPU-Sim: synchronize waiting for inactive GPU simulation
GPGPU-Sim API: Stream Manager State
GPGPU-Sim: detected inactive GPU simulation thread

GPGPU-Sim PTX: cudaLaunch for 0x0x403bc0 (mode=performance simulation) on stream 0
GPGPU-Sim PTX: pushing kernel '_Z13GPU_laplace3diiiiPfS_' to stream 0, gridDim= (4,25,1) blockDim = (32,4,1) 
kernel '_Z13GPU_laplace3diiiiPfS_' transfer to GPU hardware scheduler
GPGPU-Sim uArch: Shader 1 bind to kernel 1 '_Z13GPU_laplace3diiiiPfS_'
GPGPU-Sim uArch: CTA/core = 8, limited by: cta_limit
GPGPU-Sim uArch: core:  1, cta: 0 initialized @(1,0)
GPGPU-Sim uArch: Shader 2 bind to kernel 1 '_Z13GPU_laplace3diiiiPfS_'
GPGPU-Sim uArch: core:  2, cta: 0 initialized @(1,0)
GPGPU-Sim uArch: Shader 3 bind to kernel 1 '_Z13GPU_laplace3diiiiPfS_'
GPGPU-Sim uArch: core:  3, cta: 0 initialized @(1,0)
GPGPU-Sim uArch: Shader 4 bind to kernel 1 '_Z13GPU_laplace3diiiiPfS_'
GPGPU-Sim uArch: core:  4, cta: 0 initialized @(1,0)
GPGPU-Sim uArch: Shader 5 bind to kernel 1 '_Z13GPU_laplace3diiiiPfS_'
GPGPU-Sim uArch: core:  5, cta: 0 initialized @(1,0)
GPGPU-Sim uArch: Shader 6 bind to kernel 1 '_Z13GPU_laplace3diiiiPfS_'
GPGPU-Sim uArch: core:  6, cta: 0 initialized @(1,0)
GPGPU-Sim uArch: Shader 7 bind to kernel 1 '_Z13GPU_laplace3diiiiPfS_'
GPGPU-Sim uArch: core:  7, cta: 0 initialized @(1,0)
GPGPU-Sim uArch: Shader 8 bind to kernel 1 '_Z13GPU_laplace3diiiiPfS_'
GPGPU-Sim uArch: core:  8, cta: 0 initialized @(1,0)
GPGPU-Sim uArch: Shader 9 bind to kernel 1 '_Z13GPU_laplace3diiiiPfS_'
GPGPU-Sim uArch: core:  9, cta: 0 initialized @(1,0)
GPGPU-Sim uArch: Shader 10 bind to kernel 1 '_Z13GPU_laplace3diiiiPfS_'
GPGPU-Sim uArch: core: 10, cta: 0 initialized @(1,0)
GPGPU-Sim uArch: Shader 11 bind to kernel 1 '_Z13GPU_laplace3diiiiPfS_'
GPGPU-Sim uArch: core: 11, cta: 0 initialized @(1,0)
GPGPU-Sim uArch: Shader 12 bind to kernel 1 '_Z13GPU_laplace3diiiiPfS_'
GPGPU-Sim uArch: core: 12, cta: 0 initialized @(1,0)
GPGPU-Sim uArch: Shader 13 bind to kernel 1 '_Z13GPU_laplace3diiiiPfS_'
GPGPU-Sim uArch: core: 13, cta: 0 initialized @(1,0)
GPGPU-Sim uArch: Shader 14 bind to kernel 1 '_Z13GPU_laplace3diiiiPfS_'
GPGPU-Sim uArch: core: 14, cta: 0 initialized @(1,0)
GPGPU-Sim uArch: Shader 0 bind to kernel 1 '_Z13GPU_laplace3diiiiPfS_'
GPGPU-Sim uArch: core:  0, cta: 0 initialized @(1,0)
GPGPU-Sim uArch: core:  1, cta: 1 initialized @(2,0)
GPGPU-Sim uArch: core:  2, cta: 1 initialized @(2,0)
GPGPU-Sim uArch: core:  3, cta: 1 initialized @(2,0)
GPGPU-Sim uArch: core:  4, cta: 1 initialized @(2,0)
GPGPU-Sim uArch: core:  5, cta: 1 initialized @(2,0)
GPGPU-Sim uArch: core:  6, cta: 1 initialized @(2,0)
GPGPU-Sim uArch: core:  7, cta: 1 initialized @(2,0)
GPGPU-Sim uArch: core:  8, cta: 1 initialized @(2,0)
GPGPU-Sim uArch: core:  9, cta: 1 initialized @(2,0)
GPGPU-Sim uArch: core: 10, cta: 1 initialized @(2,0)
GPGPU-Sim uArch: core: 11, cta: 1 initialized @(2,0)
GPGPU-Sim uArch: core: 12, cta: 1 initialized @(2,0)
GPGPU-Sim uArch: core: 13, cta: 1 initialized @(2,0)
GPGPU-Sim uArch: core: 14, cta: 1 initialized @(2,0)
GPGPU-Sim uArch: core:  0, cta: 1 initialized @(2,0)
GPGPU-Sim uArch: core:  1, cta: 2 initialized @(3,0)
GPGPU-Sim uArch: core:  2, cta: 2 initialized @(3,0)
GPGPU-Sim uArch: core:  3, cta: 2 initialized @(3,0)
GPGPU-Sim uArch: core:  4, cta: 2 initialized @(3,0)
GPGPU-Sim uArch: core:  5, cta: 2 initialized @(3,0)
GPGPU-Sim uArch: core:  6, cta: 2 initialized @(3,0)
GPGPU-Sim uArch: core:  7, cta: 2 initialized @(3,0)
GPGPU-Sim uArch: core:  8, cta: 2 initialized @(3,0)
GPGPU-Sim uArch: core:  9, cta: 2 initialized @(3,0)
GPGPU-Sim uArch: core: 10, cta: 2 initialized @(3,0)
GPGPU-Sim uArch: core: 11, cta: 2 initialized @(3,0)
GPGPU-Sim uArch: core: 12, cta: 2 initialized @(3,0)
GPGPU-Sim uArch: core: 13, cta: 2 initialized @(3,0)
GPGPU-Sim uArch: core: 14, cta: 2 initialized @(3,0)
GPGPU-Sim uArch: core:  0, cta: 2 initialized @(3,0)
GPGPU-Sim uArch: core:  1, cta: 3 initialized @(4,0)
GPGPU-Sim uArch: core:  2, cta: 3 initialized @(4,0)
GPGPU-Sim uArch: core:  3, cta: 3 initialized @(4,0)
GPGPU-Sim uArch: core:  4, cta: 3 initialized @(4,0)
GPGPU-Sim uArch: core:  5, cta: 3 initialized @(4,0)
GPGPU-Sim uArch: core:  6, cta: 3 initialized @(4,0)
GPGPU-Sim uArch: core:  7, cta: 3 initialized @(4,0)
GPGPU-Sim uArch: core:  8, cta: 3 initialized @(4,0)
GPGPU-Sim uArch: core:  9, cta: 3 initialized @(4,0)
GPGPU-Sim uArch: core: 10, cta: 3 initialized @(4,0)
GPGPU-Sim uArch: core: 11, cta: 3 initialized @(4,0)
GPGPU-Sim uArch: core: 12, cta: 3 initialized @(4,0)
GPGPU-Sim uArch: core: 13, cta: 3 initialized @(4,0)
GPGPU-Sim uArch: core: 14, cta: 3 initialized @(4,0)
GPGPU-Sim uArch: core:  0, cta: 3 initialized @(4,0)
GPGPU-Sim uArch: core:  1, cta: 4 initialized @(5,0)
GPGPU-Sim uArch: core:  2, cta: 4 initialized @(5,0)
GPGPU-Sim uArch: core:  3, cta: 4 initialized @(5,0)
GPGPU-Sim uArch: core:  4, cta: 4 initialized @(5,0)
GPGPU-Sim uArch: core:  5, cta: 4 initialized @(5,0)
GPGPU-Sim uArch: core:  6, cta: 4 initialized @(5,0)
GPGPU-Sim uArch: core:  7, cta: 4 initialized @(5,0)
GPGPU-Sim uArch: core:  8, cta: 4 initialized @(5,0)
GPGPU-Sim uArch: core:  9, cta: 4 initialized @(5,0)
GPGPU-Sim uArch: core: 10, cta: 4 initialized @(5,0)
GPGPU-Sim uArch: core: 11, cta: 4 initialized @(5,0)
GPGPU-Sim uArch: core: 12, cta: 4 initialized @(5,0)
GPGPU-Sim uArch: core: 13, cta: 4 initialized @(5,0)
GPGPU-Sim uArch: core: 14, cta: 4 initialized @(5,0)
GPGPU-Sim uArch: core:  0, cta: 4 initialized @(5,0)
GPGPU-Sim uArch: core:  1, cta: 5 initialized @(6,0)
GPGPU-Sim uArch: core:  2, cta: 5 initialized @(6,0)
GPGPU-Sim uArch: core:  3, cta: 5 initialized @(6,0)
GPGPU-Sim uArch: core:  4, cta: 5 initialized @(6,0)
GPGPU-Sim uArch: core:  5, cta: 5 initialized @(6,0)
GPGPU-Sim uArch: core:  6, cta: 5 initialized @(6,0)
GPGPU-Sim uArch: core:  7, cta: 5 initialized @(6,0)
GPGPU-Sim uArch: core:  8, cta: 5 initialized @(6,0)
GPGPU-Sim uArch: core:  9, cta: 5 initialized @(6,0)
GPGPU-Sim uArch: core: 10, cta: 5 initialized @(6,0)
GPGPU-Sim uArch: core: 11, cta: 5 initialized @(6,0)
GPGPU-Sim uArch: core: 12, cta: 5 initialized @(6,0)
GPGPU-Sim uArch: core: 13, cta: 5 initialized @(6,0)
GPGPU-Sim uArch: core: 14, cta: 5 initialized @(6,0)
GPGPU-Sim uArch: core:  0, cta: 5 initialized @(6,0)
GPGPU-Sim uArch: core:  1, cta: 6 initialized @(7,0)
GPGPU-Sim uArch: core:  2, cta: 6 initialized @(7,0)
GPGPU-Sim uArch: core:  3, cta: 6 initialized @(7,0)
GPGPU-Sim uArch: core:  4, cta: 6 initialized @(7,0)
GPGPU-Sim uArch: core:  5, cta: 6 initialized @(7,0)
GPGPU-Sim uArch: core:  6, cta: 6 initialized @(7,0)
GPGPU-Sim uArch: core:  7, cta: 6 initialized @(7,0)
GPGPU-Sim uArch: core:  8, cta: 6 initialized @(7,0)
GPGPU-Sim uArch: core:  9, cta: 6 initialized @(7,0)
GPGPU-Sim uArch: core: 10, cta: 6 initialized @(7,0)
GPGPU-Sim uArch: cycles simulated: 500  inst.: 67648 (ipc=135.3) sim_rate=33824 (inst/sec) elapsed = 0:0:00:02 / Tue May 12 19:04:22 2015
GPGPU-Sim PTX: 100000 instructions simulated : ctaid=(0,16,0) tid=(31,0,0)
GPGPU-Sim PTX: 200000 instructions simulated : ctaid=(0,10,0) tid=(31,1,0)
GPGPU-Sim uArch: cycles simulated: 1000  inst.: 255948 (ipc=255.9) sim_rate=63987 (inst/sec) elapsed = 0:0:00:04 / Tue May 12 19:04:24 2015
GPGPU-Sim PTX: 300000 instructions simulated : ctaid=(1,14,0) tid=(11,3,0)
GPGPU-Sim PTX: 400000 instructions simulated : ctaid=(2,22,0) tid=(31,1,0)
GPGPU-Sim uArch: cycles simulated: 1500  inst.: 443632 (ipc=295.8) sim_rate=73938 (inst/sec) elapsed = 0:0:00:06 / Tue May 12 19:04:26 2015
GPGPU-Sim PTX: 500000 instructions simulated : ctaid=(1,11,0) tid=(3,0,0)
GPGPU-Sim PTX: 600000 instructions simulated : ctaid=(1,20,0) tid=(19,1,0)
GPGPU-Sim uArch: cycles simulated: 2000  inst.: 636724 (ipc=318.4) sim_rate=70747 (inst/sec) elapsed = 0:0:00:09 / Tue May 12 19:04:29 2015
GPGPU-Sim PTX: 700000 instructions simulated : ctaid=(3,18,0) tid=(27,1,0)
GPGPU-Sim PTX: 800000 instructions simulated : ctaid=(1,11,0) tid=(21,1,0)
GPGPU-Sim uArch: cycles simulated: 2500  inst.: 832218 (ipc=332.9) sim_rate=75656 (inst/sec) elapsed = 0:0:00:11 / Tue May 12 19:04:31 2015
GPGPU-Sim PTX: 900000 instructions simulated : ctaid=(2,19,0) tid=(12,1,0)
GPGPU-Sim PTX: 1000000 instructions simulated : ctaid=(3,2,0) tid=(4,0,0)
GPGPU-Sim uArch: cycles simulated: 3000  inst.: 1007042 (ipc=335.7) sim_rate=77464 (inst/sec) elapsed = 0:0:00:13 / Tue May 12 19:04:33 2015
GPGPU-Sim PTX: 1100000 instructions simulated : ctaid=(3,23,0) tid=(10,1,0)
GPGPU-Sim PTX: 1200000 instructions simulated : ctaid=(0,12,0) tid=(4,1,0)
GPGPU-Sim uArch: cycles simulated: 3500  inst.: 1165975 (ipc=333.1) sim_rate=77731 (inst/sec) elapsed = 0:0:00:15 / Tue May 12 19:04:35 2015
GPGPU-Sim PTX: 1300000 instructions simulated : ctaid=(3,8,0) tid=(6,0,0)
GPGPU-Sim uArch: cycles simulated: 4000  inst.: 1315867 (ipc=329.0) sim_rate=77403 (inst/sec) elapsed = 0:0:00:17 / Tue May 12 19:04:37 2015
GPGPU-Sim PTX: 1400000 instructions simulated : ctaid=(1,11,0) tid=(22,2,0)
GPGPU-Sim PTX: 1500000 instructions simulated : ctaid=(0,17,0) tid=(3,3,0)
GPGPU-Sim uArch: cycles simulated: 4500  inst.: 1441870 (ipc=320.4) sim_rate=75887 (inst/sec) elapsed = 0:0:00:19 / Tue May 12 19:04:39 2015
GPGPU-Sim PTX: 1600000 instructions simulated : ctaid=(1,9,0) tid=(26,0,0)
GPGPU-Sim PTX: 1700000 instructions simulated : ctaid=(0,9,0) tid=(29,0,0)
GPGPU-Sim uArch: cycles simulated: 5000  inst.: 1617747 (ipc=323.5) sim_rate=77035 (inst/sec) elapsed = 0:0:00:21 / Tue May 12 19:04:41 2015
GPGPU-Sim PTX: 1800000 instructions simulated : ctaid=(1,23,0) tid=(5,3,0)
GPGPU-Sim uArch: cycles simulated: 5500  inst.: 1744543 (ipc=317.2) sim_rate=75849 (inst/sec) elapsed = 0:0:00:23 / Tue May 12 19:04:43 2015
GPGPU-Sim PTX: 1900000 instructions simulated : ctaid=(1,1,0) tid=(23,0,0)
GPGPU-Sim PTX: 2000000 instructions simulated : ctaid=(2,18,0) tid=(6,0,0)
GPGPU-Sim uArch: cycles simulated: 6000  inst.: 1884283 (ipc=314.0) sim_rate=75371 (inst/sec) elapsed = 0:0:00:25 / Tue May 12 19:04:45 2015
GPGPU-Sim PTX: 2100000 instructions simulated : ctaid=(3,11,0) tid=(11,3,0)
GPGPU-Sim PTX: 2200000 instructions simulated : ctaid=(1,14,0) tid=(24,3,0)
GPGPU-Sim uArch: cycles simulated: 6500  inst.: 2038899 (ipc=313.7) sim_rate=75514 (inst/sec) elapsed = 0:0:00:27 / Tue May 12 19:04:47 2015
GPGPU-Sim PTX: 2300000 instructions simulated : ctaid=(1,20,0) tid=(5,0,0)
GPGPU-Sim PTX: 2400000 instructions simulated : ctaid=(1,23,0) tid=(27,0,0)
GPGPU-Sim uArch: cycles simulated: 7000  inst.: 2208629 (ipc=315.5) sim_rate=76159 (inst/sec) elapsed = 0:0:00:29 / Tue May 12 19:04:49 2015
GPGPU-Sim PTX: 2500000 instructions simulated : ctaid=(0,11,0) tid=(12,0,0)
GPGPU-Sim uArch: cycles simulated: 7500  inst.: 2365633 (ipc=315.4) sim_rate=73926 (inst/sec) elapsed = 0:0:00:32 / Tue May 12 19:04:52 2015
GPGPU-Sim PTX: 2600000 instructions simulated : ctaid=(1,18,0) tid=(12,2,0)
GPGPU-Sim PTX: 2700000 instructions simulated : ctaid=(1,8,0) tid=(4,3,0)
GPGPU-Sim uArch: cycles simulated: 8000  inst.: 2537821 (ipc=317.2) sim_rate=74641 (inst/sec) elapsed = 0:0:00:34 / Tue May 12 19:04:54 2015
GPGPU-Sim PTX: 2800000 instructions simulated : ctaid=(1,13,0) tid=(11,0,0)
GPGPU-Sim PTX: 2900000 instructions simulated : ctaid=(2,17,0) tid=(9,1,0)
GPGPU-Sim uArch: cycles simulated: 8500  inst.: 2699304 (ipc=317.6) sim_rate=74980 (inst/sec) elapsed = 0:0:00:36 / Tue May 12 19:04:56 2015
GPGPU-Sim PTX: 3000000 instructions simulated : ctaid=(2,14,0) tid=(17,0,0)
GPGPU-Sim PTX: 3100000 instructions simulated : ctaid=(3,20,0) tid=(5,0,0)
GPGPU-Sim uArch: cycles simulated: 9000  inst.: 2858687 (ipc=317.6) sim_rate=75228 (inst/sec) elapsed = 0:0:00:38 / Tue May 12 19:04:58 2015
GPGPU-Sim PTX: 3200000 instructions simulated : ctaid=(2,22,0) tid=(15,1,0)
GPGPU-Sim PTX: 3300000 instructions simulated : ctaid=(1,13,0) tid=(17,1,0)
GPGPU-Sim uArch: cycles simulated: 9500  inst.: 3025213 (ipc=318.4) sim_rate=75630 (inst/sec) elapsed = 0:0:00:40 / Tue May 12 19:05:00 2015
GPGPU-Sim PTX: 3400000 instructions simulated : ctaid=(1,23,0) tid=(28,0,0)
GPGPU-Sim PTX: 3500000 instructions simulated : ctaid=(0,3,0) tid=(22,3,0)
GPGPU-Sim uArch: cycles simulated: 10000  inst.: 3197379 (ipc=319.7) sim_rate=76128 (inst/sec) elapsed = 0:0:00:42 / Tue May 12 19:05:02 2015
GPGPU-Sim PTX: 3600000 instructions simulated : ctaid=(0,10,0) tid=(19,2,0)
GPGPU-Sim uArch: cycles simulated: 10500  inst.: 3350875 (ipc=319.1) sim_rate=76156 (inst/sec) elapsed = 0:0:00:44 / Tue May 12 19:05:04 2015
GPGPU-Sim PTX: 3700000 instructions simulated : ctaid=(3,13,0) tid=(0,1,0)
GPGPU-Sim PTX: 3800000 instructions simulated : ctaid=(0,14,0) tid=(12,1,0)
GPGPU-Sim uArch: cycles simulated: 11000  inst.: 3519920 (ipc=320.0) sim_rate=76520 (inst/sec) elapsed = 0:0:00:46 / Tue May 12 19:05:06 2015
GPGPU-Sim PTX: 3900000 instructions simulated : ctaid=(1,4,0) tid=(3,0,0)
GPGPU-Sim PTX: 4000000 instructions simulated : ctaid=(1,0,0) tid=(7,2,0)
GPGPU-Sim uArch: cycles simulated: 11500  inst.: 3687916 (ipc=320.7) sim_rate=76831 (inst/sec) elapsed = 0:0:00:48 / Tue May 12 19:05:08 2015
GPGPU-Sim PTX: 4100000 instructions simulated : ctaid=(2,22,0) tid=(26,2,0)
GPGPU-Sim PTX: 4200000 instructions simulated : ctaid=(1,14,0) tid=(22,0,0)
GPGPU-Sim uArch: cycles simulated: 12000  inst.: 3855212 (ipc=321.3) sim_rate=77104 (inst/sec) elapsed = 0:0:00:50 / Tue May 12 19:05:10 2015
GPGPU-Sim PTX: 4300000 instructions simulated : ctaid=(0,8,0) tid=(8,2,0)
GPGPU-Sim PTX: 4400000 instructions simulated : ctaid=(1,3,0) tid=(4,1,0)
GPGPU-Sim uArch: cycles simulated: 12500  inst.: 4025645 (ipc=322.1) sim_rate=77416 (inst/sec) elapsed = 0:0:00:52 / Tue May 12 19:05:12 2015
GPGPU-Sim PTX: 4500000 instructions simulated : ctaid=(2,23,0) tid=(7,0,0)
GPGPU-Sim PTX: 4600000 instructions simulated : ctaid=(0,8,0) tid=(9,3,0)
GPGPU-Sim uArch: cycles simulated: 13000  inst.: 4195985 (ipc=322.8) sim_rate=77703 (inst/sec) elapsed = 0:0:00:54 / Tue May 12 19:05:14 2015
GPGPU-Sim PTX: 4700000 instructions simulated : ctaid=(1,20,0) tid=(2,1,0)
GPGPU-Sim PTX: 4800000 instructions simulated : ctaid=(1,4,0) tid=(2,0,0)
GPGPU-Sim uArch: cycles simulated: 13500  inst.: 4361221 (ipc=323.1) sim_rate=77878 (inst/sec) elapsed = 0:0:00:56 / Tue May 12 19:05:16 2015
GPGPU-Sim PTX: 4900000 instructions simulated : ctaid=(1,8,0) tid=(6,1,0)
GPGPU-Sim PTX: 5000000 instructions simulated : ctaid=(1,18,0) tid=(2,1,0)
GPGPU-Sim uArch: cycles simulated: 14000  inst.: 4517007 (ipc=322.6) sim_rate=79245 (inst/sec) elapsed = 0:0:00:57 / Tue May 12 19:05:17 2015
GPGPU-Sim PTX: 5100000 instructions simulated : ctaid=(1,3,0) tid=(1,2,0)
GPGPU-Sim PTX: 5200000 instructions simulated : ctaid=(1,15,0) tid=(24,3,0)
GPGPU-Sim uArch: cycles simulated: 14500  inst.: 4692135 (ipc=323.6) sim_rate=79527 (inst/sec) elapsed = 0:0:00:59 / Tue May 12 19:05:19 2015
GPGPU-Sim PTX: 5300000 instructions simulated : ctaid=(0,17,0) tid=(15,3,0)
GPGPU-Sim uArch: cycles simulated: 15000  inst.: 4855743 (ipc=323.7) sim_rate=79602 (inst/sec) elapsed = 0:0:01:01 / Tue May 12 19:05:21 2015
GPGPU-Sim PTX: 5400000 instructions simulated : ctaid=(2,8,0) tid=(22,2,0)
GPGPU-Sim PTX: 5500000 instructions simulated : ctaid=(1,18,0) tid=(4,2,0)
GPGPU-Sim uArch: cycles simulated: 15500  inst.: 5013280 (ipc=323.4) sim_rate=79575 (inst/sec) elapsed = 0:0:01:03 / Tue May 12 19:05:23 2015
GPGPU-Sim PTX: 5600000 instructions simulated : ctaid=(2,15,0) tid=(5,1,0)
GPGPU-Sim PTX: 5700000 instructions simulated : ctaid=(1,20,0) tid=(18,2,0)
GPGPU-Sim uArch: cycles simulated: 16000  inst.: 5179867 (ipc=323.7) sim_rate=80935 (inst/sec) elapsed = 0:0:01:04 / Tue May 12 19:05:24 2015
GPGPU-Sim PTX: 5800000 instructions simulated : ctaid=(2,11,0) tid=(12,0,0)
GPGPU-Sim PTX: 5900000 instructions simulated : ctaid=(0,15,0) tid=(20,3,0)
GPGPU-Sim uArch: cycles simulated: 16500  inst.: 5352922 (ipc=324.4) sim_rate=81104 (inst/sec) elapsed = 0:0:01:06 / Tue May 12 19:05:26 2015
GPGPU-Sim PTX: 6000000 instructions simulated : ctaid=(1,13,0) tid=(1,3,0)
GPGPU-Sim PTX: 6100000 instructions simulated : ctaid=(1,20,0) tid=(0,1,0)
GPGPU-Sim uArch: cycles simulated: 17000  inst.: 5519822 (ipc=324.7) sim_rate=81173 (inst/sec) elapsed = 0:0:01:08 / Tue May 12 19:05:28 2015
GPGPU-Sim PTX: 6200000 instructions simulated : ctaid=(1,17,0) tid=(23,1,0)
GPGPU-Sim PTX: 6300000 instructions simulated : ctaid=(1,23,0) tid=(27,2,0)
GPGPU-Sim uArch: cycles simulated: 17500  inst.: 5681306 (ipc=324.6) sim_rate=81161 (inst/sec) elapsed = 0:0:01:10 / Tue May 12 19:05:30 2015
GPGPU-Sim PTX: 6400000 instructions simulated : ctaid=(1,17,0) tid=(27,0,0)
GPGPU-Sim PTX: 6500000 instructions simulated : ctaid=(2,12,0) tid=(24,2,0)
GPGPU-Sim uArch: cycles simulated: 18000  inst.: 5853459 (ipc=325.2) sim_rate=81298 (inst/sec) elapsed = 0:0:01:12 / Tue May 12 19:05:32 2015
GPGPU-Sim PTX: 6600000 instructions simulated : ctaid=(1,6,0) tid=(0,3,0)
GPGPU-Sim uArch: cycles simulated: 18500  inst.: 6018522 (ipc=325.3) sim_rate=81331 (inst/sec) elapsed = 0:0:01:14 / Tue May 12 19:05:34 2015
GPGPU-Sim PTX: 6700000 instructions simulated : ctaid=(0,19,0) tid=(1,1,0)
GPGPU-Sim PTX: 6800000 instructions simulated : ctaid=(1,1,0) tid=(20,2,0)
GPGPU-Sim uArch: cycles simulated: 19000  inst.: 6193214 (ipc=326.0) sim_rate=82576 (inst/sec) elapsed = 0:0:01:15 / Tue May 12 19:05:35 2015
GPGPU-Sim PTX: 6900000 instructions simulated : ctaid=(1,6,0) tid=(25,3,0)
GPGPU-Sim PTX: 7000000 instructions simulated : ctaid=(2,19,0) tid=(5,2,0)
GPGPU-Sim uArch: cycles simulated: 19500  inst.: 6358407 (ipc=326.1) sim_rate=82576 (inst/sec) elapsed = 0:0:01:17 / Tue May 12 19:05:37 2015
GPGPU-Sim PTX: 7100000 instructions simulated : ctaid=(0,19,0) tid=(31,1,0)
GPGPU-Sim PTX: 7200000 instructions simulated : ctaid=(2,24,0) tid=(3,1,0)
GPGPU-Sim uArch: cycles simulated: 20000  inst.: 6523989 (ipc=326.2) sim_rate=82582 (inst/sec) elapsed = 0:0:01:19 / Tue May 12 19:05:39 2015
GPGPU-Sim PTX: 7300000 instructions simulated : ctaid=(0,22,0) tid=(15,3,0)
GPGPU-Sim PTX: 7400000 instructions simulated : ctaid=(0,13,0) tid=(18,0,0)
GPGPU-Sim uArch: cycles simulated: 20500  inst.: 6694879 (ipc=326.6) sim_rate=82652 (inst/sec) elapsed = 0:0:01:21 / Tue May 12 19:05:41 2015
GPGPU-Sim PTX: 7500000 instructions simulated : ctaid=(0,15,0) tid=(22,3,0)
GPGPU-Sim PTX: 7600000 instructions simulated : ctaid=(1,22,0) tid=(2,1,0)
GPGPU-Sim uArch: cycles simulated: 21000  inst.: 6858063 (ipc=326.6) sim_rate=82627 (inst/sec) elapsed = 0:0:01:23 / Tue May 12 19:05:43 2015
GPGPU-Sim PTX: 7700000 instructions simulated : ctaid=(1,6,0) tid=(22,1,0)
GPGPU-Sim PTX: 7800000 instructions simulated : ctaid=(1,24,0) tid=(10,3,0)
GPGPU-Sim uArch: cycles simulated: 21500  inst.: 7021369 (ipc=326.6) sim_rate=83587 (inst/sec) elapsed = 0:0:01:24 / Tue May 12 19:05:44 2015
GPGPU-Sim PTX: 7900000 instructions simulated : ctaid=(3,17,0) tid=(2,0,0)
GPGPU-Sim PTX: 8000000 instructions simulated : ctaid=(1,8,0) tid=(3,2,0)
GPGPU-Sim uArch: cycles simulated: 22000  inst.: 7186268 (ipc=326.6) sim_rate=83561 (inst/sec) elapsed = 0:0:01:26 / Tue May 12 19:05:46 2015
GPGPU-Sim PTX: 8100000 instructions simulated : ctaid=(2,20,0) tid=(20,1,0)
GPGPU-Sim uArch: cycles simulated: 22500  inst.: 7347005 (ipc=326.5) sim_rate=83488 (inst/sec) elapsed = 0:0:01:28 / Tue May 12 19:05:48 2015
GPGPU-Sim PTX: 8200000 instructions simulated : ctaid=(1,12,0) tid=(29,1,0)
GPGPU-Sim PTX: 8300000 instructions simulated : ctaid=(0,19,0) tid=(25,2,0)
GPGPU-Sim uArch: cycles simulated: 23000  inst.: 7504967 (ipc=326.3) sim_rate=83388 (inst/sec) elapsed = 0:0:01:30 / Tue May 12 19:05:50 2015
GPGPU-Sim PTX: 8400000 instructions simulated : ctaid=(0,8,0) tid=(12,1,0)
GPGPU-Sim PTX: 8500000 instructions simulated : ctaid=(1,10,0) tid=(14,2,0)
GPGPU-Sim uArch: cycles simulated: 23500  inst.: 7671722 (ipc=326.5) sim_rate=84304 (inst/sec) elapsed = 0:0:01:31 / Tue May 12 19:05:51 2015
GPGPU-Sim PTX: 8600000 instructions simulated : ctaid=(0,11,0) tid=(29,2,0)
GPGPU-Sim PTX: 8700000 instructions simulated : ctaid=(1,20,0) tid=(18,2,0)
GPGPU-Sim uArch: cycles simulated: 24000  inst.: 7833763 (ipc=326.4) sim_rate=84234 (inst/sec) elapsed = 0:0:01:33 / Tue May 12 19:05:53 2015
GPGPU-Sim PTX: 8800000 instructions simulated : ctaid=(2,9,0) tid=(1,0,0)
GPGPU-Sim PTX: 8900000 instructions simulated : ctaid=(3,22,0) tid=(20,2,0)
GPGPU-Sim uArch: cycles simulated: 24500  inst.: 7991768 (ipc=326.2) sim_rate=84123 (inst/sec) elapsed = 0:0:01:35 / Tue May 12 19:05:55 2015
GPGPU-Sim PTX: 9000000 instructions simulated : ctaid=(2,21,0) tid=(28,1,0)
GPGPU-Sim PTX: 9100000 instructions simulated : ctaid=(2,11,0) tid=(9,2,0)
GPGPU-Sim uArch: cycles simulated: 25000  inst.: 8159704 (ipc=326.4) sim_rate=84120 (inst/sec) elapsed = 0:0:01:37 / Tue May 12 19:05:57 2015
GPGPU-Sim PTX: 9200000 instructions simulated : ctaid=(2,11,0) tid=(8,3,0)
GPGPU-Sim uArch: cycles simulated: 25500  inst.: 8319431 (ipc=326.3) sim_rate=84892 (inst/sec) elapsed = 0:0:01:38 / Tue May 12 19:05:58 2015
GPGPU-Sim PTX: 9300000 instructions simulated : ctaid=(1,19,0) tid=(23,3,0)
GPGPU-Sim PTX: 9400000 instructions simulated : ctaid=(1,5,0) tid=(20,0,0)
GPGPU-Sim uArch: cycles simulated: 26000  inst.: 8471166 (ipc=325.8) sim_rate=84711 (inst/sec) elapsed = 0:0:01:40 / Tue May 12 19:06:00 2015
GPGPU-Sim PTX: 9500000 instructions simulated : ctaid=(2,9,0) tid=(21,3,0)
GPGPU-Sim PTX: 9600000 instructions simulated : ctaid=(2,22,0) tid=(23,3,0)
GPGPU-Sim uArch: cycles simulated: 26500  inst.: 8643181 (ipc=326.2) sim_rate=84737 (inst/sec) elapsed = 0:0:01:42 / Tue May 12 19:06:02 2015
GPGPU-Sim PTX: 9700000 instructions simulated : ctaid=(1,14,0) tid=(22,3,0)
GPGPU-Sim PTX: 9800000 instructions simulated : ctaid=(1,2,0) tid=(1,2,0)
GPGPU-Sim uArch: cycles simulated: 27000  inst.: 8808851 (ipc=326.3) sim_rate=84700 (inst/sec) elapsed = 0:0:01:44 / Tue May 12 19:06:04 2015
GPGPU-Sim PTX: 9900000 instructions simulated : ctaid=(1,7,0) tid=(10,1,0)
GPGPU-Sim PTX: 10000000 instructions simulated : ctaid=(2,8,0) tid=(6,2,0)
GPGPU-Sim uArch: cycles simulated: 27500  inst.: 8977568 (ipc=326.5) sim_rate=84694 (inst/sec) elapsed = 0:0:01:46 / Tue May 12 19:06:06 2015
GPGPU-Sim PTX: 10100000 instructions simulated : ctaid=(1,9,0) tid=(25,3,0)
GPGPU-Sim PTX: 10200000 instructions simulated : ctaid=(2,24,0) tid=(10,3,0)
GPGPU-Sim uArch: cycles simulated: 28000  inst.: 9135502 (ipc=326.3) sim_rate=84587 (inst/sec) elapsed = 0:0:01:48 / Tue May 12 19:06:08 2015
GPGPU-Sim PTX: 10300000 instructions simulated : ctaid=(0,15,0) tid=(17,3,0)
GPGPU-Sim uArch: cycles simulated: 28500  inst.: 9303229 (ipc=326.4) sim_rate=84574 (inst/sec) elapsed = 0:0:01:50 / Tue May 12 19:06:10 2015
GPGPU-Sim PTX: 10400000 instructions simulated : ctaid=(1,18,0) tid=(13,1,0)
GPGPU-Sim PTX: 10500000 instructions simulated : ctaid=(1,11,0) tid=(31,3,0)
GPGPU-Sim uArch: cycles simulated: 29000  inst.: 9465142 (ipc=326.4) sim_rate=84510 (inst/sec) elapsed = 0:0:01:52 / Tue May 12 19:06:12 2015
GPGPU-Sim PTX: 10600000 instructions simulated : ctaid=(2,21,0) tid=(24,0,0)
GPGPU-Sim PTX: 10700000 instructions simulated : ctaid=(1,8,0) tid=(11,0,0)
GPGPU-Sim uArch: cycles simulated: 29500  inst.: 9627424 (ipc=326.4) sim_rate=84451 (inst/sec) elapsed = 0:0:01:54 / Tue May 12 19:06:14 2015
GPGPU-Sim PTX: 10800000 instructions simulated : ctaid=(1,7,0) tid=(1,0,0)
GPGPU-Sim PTX: 10900000 instructions simulated : ctaid=(2,22,0) tid=(18,1,0)
GPGPU-Sim uArch: cycles simulated: 30000  inst.: 9796483 (ipc=326.5) sim_rate=85186 (inst/sec) elapsed = 0:0:01:55 / Tue May 12 19:06:15 2015
GPGPU-Sim PTX: 11000000 instructions simulated : ctaid=(0,22,0) tid=(6,1,0)
GPGPU-Sim PTX: 11100000 instructions simulated : ctaid=(1,3,0) tid=(12,3,0)
GPGPU-Sim uArch: cycles simulated: 30500  inst.: 9965038 (ipc=326.7) sim_rate=85171 (inst/sec) elapsed = 0:0:01:57 / Tue May 12 19:06:17 2015
GPGPU-Sim PTX: 11200000 instructions simulated : ctaid=(1,18,0) tid=(0,2,0)
GPGPU-Sim PTX: 11300000 instructions simulated : ctaid=(0,11,0) tid=(24,0,0)
GPGPU-Sim uArch: cycles simulated: 31000  inst.: 10130243 (ipc=326.8) sim_rate=85128 (inst/sec) elapsed = 0:0:01:59 / Tue May 12 19:06:19 2015
GPGPU-Sim PTX: 11400000 instructions simulated : ctaid=(2,4,0) tid=(20,3,0)
GPGPU-Sim PTX: 11500000 instructions simulated : ctaid=(0,15,0) tid=(11,2,0)
GPGPU-Sim uArch: cycles simulated: 31500  inst.: 10304811 (ipc=327.1) sim_rate=85163 (inst/sec) elapsed = 0:0:02:01 / Tue May 12 19:06:21 2015
GPGPU-Sim PTX: 11600000 instructions simulated : ctaid=(3,9,0) tid=(29,1,0)
GPGPU-Sim PTX: 11700000 instructions simulated : ctaid=(2,14,0) tid=(25,0,0)
GPGPU-Sim uArch: cycles simulated: 32000  inst.: 10476478 (ipc=327.4) sim_rate=85174 (inst/sec) elapsed = 0:0:02:03 / Tue May 12 19:06:23 2015
GPGPU-Sim PTX: 11800000 instructions simulated : ctaid=(3,10,0) tid=(15,2,0)
GPGPU-Sim uArch: cycles simulated: 32500  inst.: 10637277 (ipc=327.3) sim_rate=85098 (inst/sec) elapsed = 0:0:02:05 / Tue May 12 19:06:25 2015
GPGPU-Sim PTX: 11900000 instructions simulated : ctaid=(1,11,0) tid=(23,0,0)
GPGPU-Sim PTX: 12000000 instructions simulated : ctaid=(2,12,0) tid=(26,2,0)
GPGPU-Sim uArch: cycles simulated: 33000  inst.: 10812921 (ipc=327.7) sim_rate=85816 (inst/sec) elapsed = 0:0:02:06 / Tue May 12 19:06:26 2015
GPGPU-Sim PTX: 12100000 instructions simulated : ctaid=(2,20,0) tid=(11,2,0)
GPGPU-Sim PTX: 12200000 instructions simulated : ctaid=(0,2,0) tid=(7,1,0)
GPGPU-Sim uArch: cycles simulated: 33500  inst.: 10981913 (ipc=327.8) sim_rate=85796 (inst/sec) elapsed = 0:0:02:08 / Tue May 12 19:06:28 2015
GPGPU-Sim PTX: 12300000 instructions simulated : ctaid=(0,11,0) tid=(2,1,0)
GPGPU-Sim PTX: 12400000 instructions simulated : ctaid=(2,17,0) tid=(6,1,0)
GPGPU-Sim uArch: cycles simulated: 34000  inst.: 11145747 (ipc=327.8) sim_rate=85736 (inst/sec) elapsed = 0:0:02:10 / Tue May 12 19:06:30 2015
GPGPU-Sim PTX: 12500000 instructions simulated : ctaid=(1,21,0) tid=(19,1,0)
GPGPU-Sim PTX: 12600000 instructions simulated : ctaid=(2,23,0) tid=(28,2,0)
GPGPU-Sim uArch: cycles simulated: 34500  inst.: 11307890 (ipc=327.8) sim_rate=85665 (inst/sec) elapsed = 0:0:02:12 / Tue May 12 19:06:32 2015
GPGPU-Sim PTX: 12700000 instructions simulated : ctaid=(2,11,0) tid=(17,3,0)
GPGPU-Sim PTX: 12800000 instructions simulated : ctaid=(1,23,0) tid=(16,3,0)
GPGPU-Sim uArch: cycles simulated: 35000  inst.: 11476978 (ipc=327.9) sim_rate=85649 (inst/sec) elapsed = 0:0:02:14 / Tue May 12 19:06:34 2015
GPGPU-Sim PTX: 12900000 instructions simulated : ctaid=(2,9,0) tid=(19,0,0)
GPGPU-Sim PTX: 13000000 instructions simulated : ctaid=(2,18,0) tid=(15,2,0)
GPGPU-Sim uArch: cycles simulated: 35500  inst.: 11652341 (ipc=328.2) sim_rate=86313 (inst/sec) elapsed = 0:0:02:15 / Tue May 12 19:06:35 2015
GPGPU-Sim PTX: 13100000 instructions simulated : ctaid=(1,20,0) tid=(4,0,0)
GPGPU-Sim PTX: 13200000 instructions simulated : ctaid=(1,15,0) tid=(24,2,0)
GPGPU-Sim uArch: cycles simulated: 36000  inst.: 11810345 (ipc=328.1) sim_rate=86206 (inst/sec) elapsed = 0:0:02:17 / Tue May 12 19:06:37 2015
GPGPU-Sim PTX: 13300000 instructions simulated : ctaid=(2,10,0) tid=(3,0,0)
GPGPU-Sim PTX: 13400000 instructions simulated : ctaid=(0,7,0) tid=(0,0,0)
GPGPU-Sim uArch: cycles simulated: 36500  inst.: 11981443 (ipc=328.3) sim_rate=86197 (inst/sec) elapsed = 0:0:02:19 / Tue May 12 19:06:39 2015
GPGPU-Sim PTX: 13500000 instructions simulated : ctaid=(0,20,0) tid=(1,3,0)
GPGPU-Sim uArch: cycles simulated: 37000  inst.: 12146226 (ipc=328.3) sim_rate=86143 (inst/sec) elapsed = 0:0:02:21 / Tue May 12 19:06:41 2015
GPGPU-Sim PTX: 13600000 instructions simulated : ctaid=(2,24,0) tid=(27,0,0)
GPGPU-Sim PTX: 13700000 instructions simulated : ctaid=(2,21,0) tid=(0,3,0)
GPGPU-Sim uArch: cycles simulated: 37500  inst.: 12310132 (ipc=328.3) sim_rate=86084 (inst/sec) elapsed = 0:0:02:23 / Tue May 12 19:06:43 2015
GPGPU-Sim PTX: 13800000 instructions simulated : ctaid=(2,3,0) tid=(31,1,0)
GPGPU-Sim PTX: 13900000 instructions simulated : ctaid=(2,18,0) tid=(25,3,0)
GPGPU-Sim uArch: cycles simulated: 38000  inst.: 12484354 (ipc=328.5) sim_rate=86098 (inst/sec) elapsed = 0:0:02:25 / Tue May 12 19:06:45 2015
GPGPU-Sim PTX: 14000000 instructions simulated : ctaid=(1,13,0) tid=(20,0,0)
GPGPU-Sim PTX: 14100000 instructions simulated : ctaid=(1,9,0) tid=(21,1,0)
GPGPU-Sim uArch: cycles simulated: 38500  inst.: 12642198 (ipc=328.4) sim_rate=86001 (inst/sec) elapsed = 0:0:02:27 / Tue May 12 19:06:47 2015
GPGPU-Sim PTX: 14200000 instructions simulated : ctaid=(1,6,0) tid=(31,0,0)
GPGPU-Sim PTX: 14300000 instructions simulated : ctaid=(2,24,0) tid=(29,1,0)
GPGPU-Sim uArch: cycles simulated: 39000  inst.: 12813685 (ipc=328.6) sim_rate=85997 (inst/sec) elapsed = 0:0:02:29 / Tue May 12 19:06:49 2015
GPGPU-Sim PTX: 14400000 instructions simulated : ctaid=(2,21,0) tid=(19,3,0)
GPGPU-Sim PTX: 14500000 instructions simulated : ctaid=(3,10,0) tid=(6,3,0)
GPGPU-Sim uArch: cycles simulated: 39500  inst.: 12982399 (ipc=328.7) sim_rate=85976 (inst/sec) elapsed = 0:0:02:31 / Tue May 12 19:06:51 2015
GPGPU-Sim PTX: 14600000 instructions simulated : ctaid=(1,5,0) tid=(31,0,0)
GPGPU-Sim PTX: 14700000 instructions simulated : ctaid=(2,15,0) tid=(9,1,0)
GPGPU-Sim uArch: cycles simulated: 40000  inst.: 13141753 (ipc=328.5) sim_rate=85893 (inst/sec) elapsed = 0:0:02:33 / Tue May 12 19:06:53 2015
GPGPU-Sim PTX: 14800000 instructions simulated : ctaid=(1,8,0) tid=(9,1,0)
GPGPU-Sim PTX: 14900000 instructions simulated : ctaid=(1,22,0) tid=(11,0,0)
GPGPU-Sim uArch: cycles simulated: 40500  inst.: 13303637 (ipc=328.5) sim_rate=86387 (inst/sec) elapsed = 0:0:02:34 / Tue May 12 19:06:54 2015
GPGPU-Sim PTX: 15000000 instructions simulated : ctaid=(2,3,0) tid=(26,1,0)
GPGPU-Sim uArch: cycles simulated: 41000  inst.: 13475038 (ipc=328.7) sim_rate=86378 (inst/sec) elapsed = 0:0:02:36 / Tue May 12 19:06:56 2015
GPGPU-Sim PTX: 15100000 instructions simulated : ctaid=(1,22,0) tid=(6,2,0)
GPGPU-Sim PTX: 15200000 instructions simulated : ctaid=(2,16,0) tid=(10,2,0)
GPGPU-Sim uArch: cycles simulated: 41500  inst.: 13642805 (ipc=328.7) sim_rate=86346 (inst/sec) elapsed = 0:0:02:38 / Tue May 12 19:06:58 2015
GPGPU-Sim PTX: 15300000 instructions simulated : ctaid=(0,23,0) tid=(14,2,0)
GPGPU-Sim PTX: 15400000 instructions simulated : ctaid=(0,9,0) tid=(16,0,0)
GPGPU-Sim uArch: cycles simulated: 42000  inst.: 13803674 (ipc=328.7) sim_rate=86272 (inst/sec) elapsed = 0:0:02:40 / Tue May 12 19:07:00 2015
GPGPU-Sim PTX: 15500000 instructions simulated : ctaid=(1,8,0) tid=(30,1,0)
GPGPU-Sim PTX: 15600000 instructions simulated : ctaid=(2,23,0) tid=(7,0,0)
GPGPU-Sim uArch: cycles simulated: 42500  inst.: 13967218 (ipc=328.6) sim_rate=86217 (inst/sec) elapsed = 0:0:02:42 / Tue May 12 19:07:02 2015
GPGPU-Sim PTX: 15700000 instructions simulated : ctaid=(0,7,0) tid=(2,2,0)
GPGPU-Sim PTX: 15800000 instructions simulated : ctaid=(2,8,0) tid=(26,3,0)
GPGPU-Sim uArch: cycles simulated: 43000  inst.: 14137280 (ipc=328.8) sim_rate=86731 (inst/sec) elapsed = 0:0:02:43 / Tue May 12 19:07:03 2015
GPGPU-Sim PTX: 15900000 instructions simulated : ctaid=(2,14,0) tid=(22,1,0)
GPGPU-Sim PTX: 16000000 instructions simulated : ctaid=(1,11,0) tid=(11,2,0)
GPGPU-Sim uArch: cycles simulated: 43500  inst.: 14300307 (ipc=328.7) sim_rate=86668 (inst/sec) elapsed = 0:0:02:45 / Tue May 12 19:07:05 2015
GPGPU-Sim PTX: 16100000 instructions simulated : ctaid=(0,23,0) tid=(16,0,0)
GPGPU-Sim PTX: 16200000 instructions simulated : ctaid=(3,18,0) tid=(9,1,0)
GPGPU-Sim uArch: cycles simulated: 44000  inst.: 14464795 (ipc=328.7) sim_rate=86615 (inst/sec) elapsed = 0:0:02:47 / Tue May 12 19:07:07 2015
GPGPU-Sim PTX: 16300000 instructions simulated : ctaid=(1,2,0) tid=(31,3,0)
GPGPU-Sim uArch: cycles simulated: 44500  inst.: 14630422 (ipc=328.8) sim_rate=86570 (inst/sec) elapsed = 0:0:02:49 / Tue May 12 19:07:09 2015
GPGPU-Sim PTX: 16400000 instructions simulated : ctaid=(2,22,0) tid=(25,3,0)
GPGPU-Sim PTX: 16500000 instructions simulated : ctaid=(1,18,0) tid=(24,2,0)
GPGPU-Sim uArch: cycles simulated: 45000  inst.: 14800140 (ipc=328.9) sim_rate=86550 (inst/sec) elapsed = 0:0:02:51 / Tue May 12 19:07:11 2015
GPGPU-Sim PTX: 16600000 instructions simulated : ctaid=(2,18,0) tid=(7,1,0)
GPGPU-Sim PTX: 16700000 instructions simulated : ctaid=(1,20,0) tid=(18,0,0)
GPGPU-Sim uArch: cycles simulated: 45500  inst.: 14962541 (ipc=328.8) sim_rate=86488 (inst/sec) elapsed = 0:0:02:53 / Tue May 12 19:07:13 2015
GPGPU-Sim PTX: 16800000 instructions simulated : ctaid=(2,6,0) tid=(29,0,0)
GPGPU-Sim PTX: 16900000 instructions simulated : ctaid=(0,8,0) tid=(4,2,0)
GPGPU-Sim uArch: cycles simulated: 46000  inst.: 15126239 (ipc=328.8) sim_rate=86435 (inst/sec) elapsed = 0:0:02:55 / Tue May 12 19:07:15 2015
GPGPU-Sim PTX: 17000000 instructions simulated : ctaid=(1,13,0) tid=(27,1,0)
GPGPU-Sim PTX: 17100000 instructions simulated : ctaid=(2,11,0) tid=(31,1,0)
GPGPU-Sim uArch: cycles simulated: 46500  inst.: 15293747 (ipc=328.9) sim_rate=86896 (inst/sec) elapsed = 0:0:02:56 / Tue May 12 19:07:16 2015
GPGPU-Sim PTX: 17200000 instructions simulated : ctaid=(3,21,0) tid=(29,0,0)
GPGPU-Sim PTX: 17300000 instructions simulated : ctaid=(1,20,0) tid=(16,2,0)
GPGPU-Sim uArch: cycles simulated: 47000  inst.: 15456147 (ipc=328.9) sim_rate=86832 (inst/sec) elapsed = 0:0:02:58 / Tue May 12 19:07:18 2015
GPGPU-Sim PTX: 17400000 instructions simulated : ctaid=(2,13,0) tid=(4,0,0)
GPGPU-Sim PTX: 17500000 instructions simulated : ctaid=(1,18,0) tid=(22,1,0)
GPGPU-Sim uArch: cycles simulated: 47500  inst.: 15616958 (ipc=328.8) sim_rate=86760 (inst/sec) elapsed = 0:0:03:00 / Tue May 12 19:07:20 2015
GPGPU-Sim PTX: 17600000 instructions simulated : ctaid=(3,14,0) tid=(2,0,0)
GPGPU-Sim uArch: cycles simulated: 48000  inst.: 15779699 (ipc=328.7) sim_rate=86701 (inst/sec) elapsed = 0:0:03:02 / Tue May 12 19:07:22 2015
GPGPU-Sim PTX: 17700000 instructions simulated : ctaid=(1,8,0) tid=(9,0,0)
GPGPU-Sim PTX: 17800000 instructions simulated : ctaid=(0,12,0) tid=(9,2,0)
GPGPU-Sim uArch: cycles simulated: 48500  inst.: 15947799 (ipc=328.8) sim_rate=87146 (inst/sec) elapsed = 0:0:03:03 / Tue May 12 19:07:23 2015
GPGPU-Sim PTX: 17900000 instructions simulated : ctaid=(2,5,0) tid=(12,0,0)
GPGPU-Sim PTX: 18000000 instructions simulated : ctaid=(2,13,0) tid=(17,0,0)
GPGPU-Sim uArch: cycles simulated: 49000  inst.: 16116091 (ipc=328.9) sim_rate=87114 (inst/sec) elapsed = 0:0:03:05 / Tue May 12 19:07:25 2015
GPGPU-Sim PTX: 18100000 instructions simulated : ctaid=(2,17,0) tid=(27,1,0)
GPGPU-Sim PTX: 18200000 instructions simulated : ctaid=(0,23,0) tid=(6,1,0)
GPGPU-Sim uArch: cycles simulated: 49500  inst.: 16278924 (ipc=328.9) sim_rate=87053 (inst/sec) elapsed = 0:0:03:07 / Tue May 12 19:07:27 2015
GPGPU-Sim PTX: 18300000 instructions simulated : ctaid=(0,15,0) tid=(25,0,0)
GPGPU-Sim PTX: 18400000 instructions simulated : ctaid=(1,22,0) tid=(5,1,0)
GPGPU-Sim uArch: cycles simulated: 50000  inst.: 16446046 (ipc=328.9) sim_rate=87016 (inst/sec) elapsed = 0:0:03:09 / Tue May 12 19:07:29 2015
GPGPU-Sim PTX: 18500000 instructions simulated : ctaid=(0,23,0) tid=(27,1,0)
GPGPU-Sim PTX: 18600000 instructions simulated : ctaid=(1,10,0) tid=(27,2,0)
GPGPU-Sim uArch: cycles simulated: 50500  inst.: 16618721 (ipc=329.1) sim_rate=87466 (inst/sec) elapsed = 0:0:03:10 / Tue May 12 19:07:30 2015
GPGPU-Sim PTX: 18700000 instructions simulated : ctaid=(0,16,0) tid=(30,2,0)
GPGPU-Sim PTX: 18800000 instructions simulated : ctaid=(1,8,0) tid=(8,1,0)
GPGPU-Sim uArch: cycles simulated: 51000  inst.: 16790012 (ipc=329.2) sim_rate=87447 (inst/sec) elapsed = 0:0:03:12 / Tue May 12 19:07:32 2015
GPGPU-Sim PTX: 18900000 instructions simulated : ctaid=(0,3,0) tid=(19,0,0)
GPGPU-Sim PTX: 19000000 instructions simulated : ctaid=(1,8,0) tid=(20,1,0)
GPGPU-Sim uArch: cycles simulated: 51500  inst.: 16954671 (ipc=329.2) sim_rate=87395 (inst/sec) elapsed = 0:0:03:14 / Tue May 12 19:07:34 2015
GPGPU-Sim PTX: 19100000 instructions simulated : ctaid=(1,17,0) tid=(27,3,0)
GPGPU-Sim PTX: 19200000 instructions simulated : ctaid=(2,13,0) tid=(23,3,0)
GPGPU-Sim uArch: cycles simulated: 52000  inst.: 17127520 (ipc=329.4) sim_rate=87385 (inst/sec) elapsed = 0:0:03:16 / Tue May 12 19:07:36 2015
GPGPU-Sim PTX: 19300000 instructions simulated : ctaid=(1,6,0) tid=(28,2,0)
GPGPU-Sim uArch: cycles simulated: 52500  inst.: 17296342 (ipc=329.5) sim_rate=87798 (inst/sec) elapsed = 0:0:03:17 / Tue May 12 19:07:37 2015
GPGPU-Sim PTX: 19400000 instructions simulated : ctaid=(1,9,0) tid=(19,0,0)
GPGPU-Sim PTX: 19500000 instructions simulated : ctaid=(1,22,0) tid=(13,2,0)
GPGPU-Sim uArch: cycles simulated: 53000  inst.: 17464415 (ipc=329.5) sim_rate=87760 (inst/sec) elapsed = 0:0:03:19 / Tue May 12 19:07:39 2015
GPGPU-Sim PTX: 19600000 instructions simulated : ctaid=(1,8,0) tid=(27,3,0)
GPGPU-Sim PTX: 19700000 instructions simulated : ctaid=(3,20,0) tid=(2,0,0)
GPGPU-Sim uArch: cycles simulated: 53500  inst.: 17632737 (ipc=329.6) sim_rate=87725 (inst/sec) elapsed = 0:0:03:21 / Tue May 12 19:07:41 2015
GPGPU-Sim PTX: 19800000 instructions simulated : ctaid=(2,15,0) tid=(22,0,0)
GPGPU-Sim PTX: 19900000 instructions simulated : ctaid=(2,13,0) tid=(25,0,0)
GPGPU-Sim uArch: cycles simulated: 54000  inst.: 17801760 (ipc=329.7) sim_rate=87693 (inst/sec) elapsed = 0:0:03:23 / Tue May 12 19:07:43 2015
GPGPU-Sim PTX: 20000000 instructions simulated : ctaid=(0,21,0) tid=(11,3,0)
GPGPU-Sim PTX: 20100000 instructions simulated : ctaid=(1,20,0) tid=(11,3,0)
GPGPU-Sim uArch: cycles simulated: 54500  inst.: 17973396 (ipc=329.8) sim_rate=87675 (inst/sec) elapsed = 0:0:03:25 / Tue May 12 19:07:45 2015
GPGPU-Sim PTX: 20200000 instructions simulated : ctaid=(1,13,0) tid=(20,1,0)
GPGPU-Sim PTX: 20300000 instructions simulated : ctaid=(1,19,0) tid=(12,2,0)
GPGPU-Sim uArch: cycles simulated: 55000  inst.: 18137131 (ipc=329.8) sim_rate=88044 (inst/sec) elapsed = 0:0:03:26 / Tue May 12 19:07:46 2015
GPGPU-Sim PTX: 20400000 instructions simulated : ctaid=(1,2,0) tid=(25,3,0)
GPGPU-Sim PTX: 20500000 instructions simulated : ctaid=(2,14,0) tid=(31,3,0)
GPGPU-Sim uArch: cycles simulated: 55500  inst.: 18303355 (ipc=329.8) sim_rate=87996 (inst/sec) elapsed = 0:0:03:28 / Tue May 12 19:07:48 2015
GPGPU-Sim PTX: 20600000 instructions simulated : ctaid=(2,18,0) tid=(14,0,0)
GPGPU-Sim PTX: 20700000 instructions simulated : ctaid=(1,17,0) tid=(7,2,0)
GPGPU-Sim uArch: cycles simulated: 56000  inst.: 18468603 (ipc=329.8) sim_rate=87945 (inst/sec) elapsed = 0:0:03:30 / Tue May 12 19:07:50 2015
GPGPU-Sim PTX: 20800000 instructions simulated : ctaid=(1,20,0) tid=(3,0,0)
GPGPU-Sim uArch: cycles simulated: 56500  inst.: 18627334 (ipc=329.7) sim_rate=87864 (inst/sec) elapsed = 0:0:03:32 / Tue May 12 19:07:52 2015
GPGPU-Sim PTX: 20900000 instructions simulated : ctaid=(1,21,0) tid=(16,2,0)
GPGPU-Sim PTX: 21000000 instructions simulated : ctaid=(2,3,0) tid=(9,2,0)
GPGPU-Sim uArch: cycles simulated: 57000  inst.: 18792821 (ipc=329.7) sim_rate=87816 (inst/sec) elapsed = 0:0:03:34 / Tue May 12 19:07:54 2015
GPGPU-Sim PTX: 21100000 instructions simulated : ctaid=(2,22,0) tid=(1,1,0)
GPGPU-Sim PTX: 21200000 instructions simulated : ctaid=(2,18,0) tid=(11,0,0)
GPGPU-Sim uArch: cycles simulated: 57500  inst.: 18953675 (ipc=329.6) sim_rate=87748 (inst/sec) elapsed = 0:0:03:36 / Tue May 12 19:07:56 2015
GPGPU-Sim PTX: 21300000 instructions simulated : ctaid=(2,15,0) tid=(2,0,0)
GPGPU-Sim PTX: 21400000 instructions simulated : ctaid=(3,16,0) tid=(3,0,0)
GPGPU-Sim uArch: cycles simulated: 58000  inst.: 19113092 (ipc=329.5) sim_rate=88078 (inst/sec) elapsed = 0:0:03:37 / Tue May 12 19:07:57 2015
GPGPU-Sim PTX: 21500000 instructions simulated : ctaid=(3,10,0) tid=(2,0,0)
GPGPU-Sim PTX: 21600000 instructions simulated : ctaid=(1,24,0) tid=(27,2,0)
GPGPU-Sim uArch: cycles simulated: 58500  inst.: 19284847 (ipc=329.7) sim_rate=88058 (inst/sec) elapsed = 0:0:03:39 / Tue May 12 19:07:59 2015
GPGPU-Sim PTX: 21700000 instructions simulated : ctaid=(1,13,0) tid=(26,1,0)
GPGPU-Sim PTX: 21800000 instructions simulated : ctaid=(1,18,0) tid=(19,1,0)
GPGPU-Sim uArch: cycles simulated: 59000  inst.: 19448637 (ipc=329.6) sim_rate=88002 (inst/sec) elapsed = 0:0:03:41 / Tue May 12 19:08:01 2015
GPGPU-Sim PTX: 21900000 instructions simulated : ctaid=(1,21,0) tid=(26,0,0)
GPGPU-Sim uArch: cycles simulated: 59500  inst.: 19603708 (ipc=329.5) sim_rate=87909 (inst/sec) elapsed = 0:0:03:43 / Tue May 12 19:08:03 2015
GPGPU-Sim PTX: 22000000 instructions simulated : ctaid=(1,15,0) tid=(16,3,0)
GPGPU-Sim PTX: 22100000 instructions simulated : ctaid=(2,3,0) tid=(7,0,0)
GPGPU-Sim uArch: cycles simulated: 60000  inst.: 19780001 (ipc=329.7) sim_rate=88303 (inst/sec) elapsed = 0:0:03:44 / Tue May 12 19:08:04 2015
GPGPU-Sim PTX: 22200000 instructions simulated : ctaid=(2,11,0) tid=(15,2,0)
GPGPU-Sim PTX: 22300000 instructions simulated : ctaid=(0,18,0) tid=(18,3,0)
GPGPU-Sim uArch: cycles simulated: 60500  inst.: 19943877 (ipc=329.7) sim_rate=88247 (inst/sec) elapsed = 0:0:03:46 / Tue May 12 19:08:06 2015
GPGPU-Sim PTX: 22400000 instructions simulated : ctaid=(1,3,0) tid=(8,2,0)
GPGPU-Sim PTX: 22500000 instructions simulated : ctaid=(2,13,0) tid=(10,0,0)
GPGPU-Sim uArch: cycles simulated: 61000  inst.: 20108700 (ipc=329.7) sim_rate=88196 (inst/sec) elapsed = 0:0:03:48 / Tue May 12 19:08:08 2015
GPGPU-Sim PTX: 22600000 instructions simulated : ctaid=(1,19,0) tid=(28,0,0)
GPGPU-Sim PTX: 22700000 instructions simulated : ctaid=(3,4,0) tid=(3,2,0)
GPGPU-Sim uArch: cycles simulated: 61500  inst.: 20272804 (ipc=329.6) sim_rate=88142 (inst/sec) elapsed = 0:0:03:50 / Tue May 12 19:08:10 2015
GPGPU-Sim PTX: 22800000 instructions simulated : ctaid=(1,1,0) tid=(19,2,0)
GPGPU-Sim PTX: 22900000 instructions simulated : ctaid=(2,21,0) tid=(13,3,0)
GPGPU-Sim uArch: cycles simulated: 62000  inst.: 20443399 (ipc=329.7) sim_rate=88499 (inst/sec) elapsed = 0:0:03:51 / Tue May 12 19:08:11 2015
GPGPU-Sim PTX: 23000000 instructions simulated : ctaid=(0,16,0) tid=(0,3,0)
GPGPU-Sim PTX: 23100000 instructions simulated : ctaid=(2,6,0) tid=(16,1,0)
GPGPU-Sim uArch: cycles simulated: 62500  inst.: 20599872 (ipc=329.6) sim_rate=88411 (inst/sec) elapsed = 0:0:03:53 / Tue May 12 19:08:13 2015
GPGPU-Sim PTX: 23200000 instructions simulated : ctaid=(1,11,0) tid=(13,2,0)
GPGPU-Sim PTX: 23300000 instructions simulated : ctaid=(1,10,0) tid=(28,0,0)
GPGPU-Sim uArch: cycles simulated: 63000  inst.: 20768718 (ipc=329.7) sim_rate=88377 (inst/sec) elapsed = 0:0:03:55 / Tue May 12 19:08:15 2015
GPGPU-Sim PTX: 23400000 instructions simulated : ctaid=(2,9,0) tid=(28,1,0)
GPGPU-Sim uArch: cycles simulated: 63500  inst.: 20931369 (ipc=329.6) sim_rate=88318 (inst/sec) elapsed = 0:0:03:57 / Tue May 12 19:08:17 2015
GPGPU-Sim PTX: 23500000 instructions simulated : ctaid=(2,24,0) tid=(18,0,0)
GPGPU-Sim PTX: 23600000 instructions simulated : ctaid=(2,5,0) tid=(29,3,0)
GPGPU-Sim uArch: cycles simulated: 64000  inst.: 21106576 (ipc=329.8) sim_rate=88312 (inst/sec) elapsed = 0:0:03:59 / Tue May 12 19:08:19 2015
GPGPU-Sim PTX: 23700000 instructions simulated : ctaid=(3,24,0) tid=(12,0,0)
GPGPU-Sim PTX: 23800000 instructions simulated : ctaid=(1,12,0) tid=(27,0,0)
GPGPU-Sim uArch: cycles simulated: 64500  inst.: 21271472 (ipc=329.8) sim_rate=88263 (inst/sec) elapsed = 0:0:04:01 / Tue May 12 19:08:21 2015
GPGPU-Sim PTX: 23900000 instructions simulated : ctaid=(2,8,0) tid=(20,1,0)
GPGPU-Sim PTX: 24000000 instructions simulated : ctaid=(2,6,0) tid=(27,0,0)
GPGPU-Sim uArch: cycles simulated: 65000  inst.: 21444973 (ipc=329.9) sim_rate=88615 (inst/sec) elapsed = 0:0:04:02 / Tue May 12 19:08:22 2015
GPGPU-Sim PTX: 24100000 instructions simulated : ctaid=(1,15,0) tid=(21,0,0)
GPGPU-Sim PTX: 24200000 instructions simulated : ctaid=(1,9,0) tid=(4,1,0)
GPGPU-Sim uArch: cycles simulated: 65500  inst.: 21607313 (ipc=329.9) sim_rate=88554 (inst/sec) elapsed = 0:0:04:04 / Tue May 12 19:08:24 2015
GPGPU-Sim PTX: 24300000 instructions simulated : ctaid=(1,24,0) tid=(23,3,0)
GPGPU-Sim PTX: 24400000 instructions simulated : ctaid=(1,24,0) tid=(27,0,0)
GPGPU-Sim uArch: cycles simulated: 66000  inst.: 21773804 (ipc=329.9) sim_rate=88511 (inst/sec) elapsed = 0:0:04:06 / Tue May 12 19:08:26 2015
GPGPU-Sim PTX: 24500000 instructions simulated : ctaid=(1,12,0) tid=(14,0,0)
GPGPU-Sim PTX: 24600000 instructions simulated : ctaid=(2,10,0) tid=(24,3,0)
GPGPU-Sim uArch: cycles simulated: 66500  inst.: 21946267 (ipc=330.0) sim_rate=88493 (inst/sec) elapsed = 0:0:04:08 / Tue May 12 19:08:28 2015
GPGPU-Sim PTX: 24700000 instructions simulated : ctaid=(2,17,0) tid=(22,2,0)
GPGPU-Sim PTX: 24800000 instructions simulated : ctaid=(1,17,0) tid=(2,1,0)
GPGPU-Sim uArch: cycles simulated: 67000  inst.: 22097996 (ipc=329.8) sim_rate=88391 (inst/sec) elapsed = 0:0:04:10 / Tue May 12 19:08:30 2015
GPGPU-Sim PTX: 24900000 instructions simulated : ctaid=(1,15,0) tid=(25,1,0)
GPGPU-Sim PTX: 25000000 instructions simulated : ctaid=(1,11,0) tid=(11,1,0)
GPGPU-Sim uArch: cycles simulated: 67500  inst.: 22272611 (ipc=330.0) sim_rate=88735 (inst/sec) elapsed = 0:0:04:11 / Tue May 12 19:08:31 2015
GPGPU-Sim PTX: 25100000 instructions simulated : ctaid=(2,10,0) tid=(23,2,0)
GPGPU-Sim uArch: cycles simulated: 68000  inst.: 22438322 (ipc=330.0) sim_rate=88689 (inst/sec) elapsed = 0:0:04:13 / Tue May 12 19:08:33 2015
GPGPU-Sim PTX: 25200000 instructions simulated : ctaid=(2,16,0) tid=(29,2,0)
GPGPU-Sim PTX: 25300000 instructions simulated : ctaid=(1,18,0) tid=(19,2,0)
GPGPU-Sim uArch: cycles simulated: 68500  inst.: 22601895 (ipc=330.0) sim_rate=88634 (inst/sec) elapsed = 0:0:04:15 / Tue May 12 19:08:35 2015
GPGPU-Sim PTX: 25400000 instructions simulated : ctaid=(2,11,0) tid=(20,2,0)
GPGPU-Sim PTX: 25500000 instructions simulated : ctaid=(2,12,0) tid=(1,2,0)
GPGPU-Sim uArch: cycles simulated: 69000  inst.: 22766720 (ipc=330.0) sim_rate=88586 (inst/sec) elapsed = 0:0:04:17 / Tue May 12 19:08:37 2015
GPGPU-Sim PTX: 25600000 instructions simulated : ctaid=(2,15,0) tid=(6,2,0)
GPGPU-Sim PTX: 25700000 instructions simulated : ctaid=(1,13,0) tid=(0,0,0)
GPGPU-Sim uArch: cycles simulated: 69500  inst.: 22931944 (ipc=330.0) sim_rate=88540 (inst/sec) elapsed = 0:0:04:19 / Tue May 12 19:08:39 2015
GPGPU-Sim PTX: 25800000 instructions simulated : ctaid=(2,13,0) tid=(30,3,0)
GPGPU-Sim PTX: 25900000 instructions simulated : ctaid=(2,7,0) tid=(28,1,0)
GPGPU-Sim uArch: cycles simulated: 70000  inst.: 23103319 (ipc=330.0) sim_rate=88518 (inst/sec) elapsed = 0:0:04:21 / Tue May 12 19:08:41 2015
GPGPU-Sim PTX: 26000000 instructions simulated : ctaid=(2,5,0) tid=(2,1,0)
GPGPU-Sim PTX: 26100000 instructions simulated : ctaid=(2,3,0) tid=(3,0,0)
GPGPU-Sim uArch: cycles simulated: 70500  inst.: 23267553 (ipc=330.0) sim_rate=88469 (inst/sec) elapsed = 0:0:04:23 / Tue May 12 19:08:43 2015
GPGPU-Sim PTX: 26200000 instructions simulated : ctaid=(3,21,0) tid=(24,1,0)
GPGPU-Sim PTX: 26300000 instructions simulated : ctaid=(3,14,0) tid=(0,3,0)
GPGPU-Sim uArch: cycles simulated: 71000  inst.: 23437489 (ipc=330.1) sim_rate=88778 (inst/sec) elapsed = 0:0:04:24 / Tue May 12 19:08:44 2015
GPGPU-Sim PTX: 26400000 instructions simulated : ctaid=(0,17,0) tid=(24,1,0)
GPGPU-Sim uArch: cycles simulated: 71500  inst.: 23599997 (ipc=330.1) sim_rate=88721 (inst/sec) elapsed = 0:0:04:26 / Tue May 12 19:08:46 2015
GPGPU-Sim PTX: 26500000 instructions simulated : ctaid=(1,2,0) tid=(18,3,0)
GPGPU-Sim PTX: 26600000 instructions simulated : ctaid=(3,3,0) tid=(25,0,0)
GPGPU-Sim uArch: cycles simulated: 72000  inst.: 23766924 (ipc=330.1) sim_rate=88682 (inst/sec) elapsed = 0:0:04:28 / Tue May 12 19:08:48 2015
GPGPU-Sim PTX: 26700000 instructions simulated : ctaid=(2,11,0) tid=(26,0,0)
GPGPU-Sim PTX: 26800000 instructions simulated : ctaid=(1,7,0) tid=(23,0,0)
GPGPU-Sim uArch: cycles simulated: 72500  inst.: 23931286 (ipc=330.1) sim_rate=88634 (inst/sec) elapsed = 0:0:04:30 / Tue May 12 19:08:50 2015
GPGPU-Sim PTX: 26900000 instructions simulated : ctaid=(0,22,0) tid=(28,3,0)
GPGPU-Sim PTX: 27000000 instructions simulated : ctaid=(2,16,0) tid=(15,1,0)
GPGPU-Sim uArch: cycles simulated: 73000  inst.: 24101822 (ipc=330.2) sim_rate=88936 (inst/sec) elapsed = 0:0:04:31 / Tue May 12 19:08:51 2015
GPGPU-Sim PTX: 27100000 instructions simulated : ctaid=(1,1,0) tid=(13,1,0)
GPGPU-Sim PTX: 27200000 instructions simulated : ctaid=(2,23,0) tid=(28,2,0)
GPGPU-Sim uArch: cycles simulated: 73500  inst.: 24264363 (ipc=330.1) sim_rate=88880 (inst/sec) elapsed = 0:0:04:33 / Tue May 12 19:08:53 2015
GPGPU-Sim PTX: 27300000 instructions simulated : ctaid=(0,3,0) tid=(1,1,0)
GPGPU-Sim PTX: 27400000 instructions simulated : ctaid=(2,7,0) tid=(2,1,0)
GPGPU-Sim uArch: cycles simulated: 74000  inst.: 24427956 (ipc=330.1) sim_rate=88828 (inst/sec) elapsed = 0:0:04:35 / Tue May 12 19:08:55 2015
GPGPU-Sim PTX: 27500000 instructions simulated : ctaid=(1,13,0) tid=(12,0,0)
GPGPU-Sim PTX: 27600000 instructions simulated : ctaid=(1,19,0) tid=(29,3,0)
GPGPU-Sim uArch: cycles simulated: 74500  inst.: 24598407 (ipc=330.2) sim_rate=88802 (inst/sec) elapsed = 0:0:04:37 / Tue May 12 19:08:57 2015
GPGPU-Sim PTX: 27700000 instructions simulated : ctaid=(1,19,0) tid=(5,2,0)
GPGPU-Sim PTX: 27800000 instructions simulated : ctaid=(0,17,0) tid=(20,3,0)
GPGPU-Sim uArch: cycles simulated: 75000  inst.: 24767703 (ipc=330.2) sim_rate=88773 (inst/sec) elapsed = 0:0:04:39 / Tue May 12 19:08:59 2015
GPGPU-Sim PTX: 27900000 instructions simulated : ctaid=(2,20,0) tid=(17,3,0)
GPGPU-Sim PTX: 28000000 instructions simulated : ctaid=(0,7,0) tid=(13,0,0)
GPGPU-Sim uArch: cycles simulated: 75500  inst.: 24941948 (ipc=330.4) sim_rate=88761 (inst/sec) elapsed = 0:0:04:41 / Tue May 12 19:09:01 2015
GPGPU-Sim PTX: 28100000 instructions simulated : ctaid=(2,12,0) tid=(3,1,0)
GPGPU-Sim uArch: cycles simulated: 76000  inst.: 25110676 (ipc=330.4) sim_rate=88730 (inst/sec) elapsed = 0:0:04:43 / Tue May 12 19:09:03 2015
GPGPU-Sim PTX: 28200000 instructions simulated : ctaid=(0,17,0) tid=(8,3,0)
GPGPU-Sim PTX: 28300000 instructions simulated : ctaid=(1,14,0) tid=(1,1,0)
GPGPU-Sim uArch: cycles simulated: 76500  inst.: 25280339 (ipc=330.5) sim_rate=89015 (inst/sec) elapsed = 0:0:04:44 / Tue May 12 19:09:04 2015
GPGPU-Sim PTX: 28400000 instructions simulated : ctaid=(2,13,0) tid=(24,0,0)
GPGPU-Sim PTX: 28500000 instructions simulated : ctaid=(2,16,0) tid=(26,0,0)
GPGPU-Sim uArch: cycles simulated: 77000  inst.: 25454207 (ipc=330.6) sim_rate=89000 (inst/sec) elapsed = 0:0:04:46 / Tue May 12 19:09:06 2015
GPGPU-Sim PTX: 28600000 instructions simulated : ctaid=(3,21,0) tid=(5,2,0)
GPGPU-Sim PTX: 28700000 instructions simulated : ctaid=(2,15,0) tid=(29,1,0)
GPGPU-Sim uArch: cycles simulated: 77500  inst.: 25622485 (ipc=330.6) sim_rate=88966 (inst/sec) elapsed = 0:0:04:48 / Tue May 12 19:09:08 2015
GPGPU-Sim PTX: 28800000 instructions simulated : ctaid=(2,8,0) tid=(29,3,0)
GPGPU-Sim PTX: 28900000 instructions simulated : ctaid=(1,4,0) tid=(16,3,0)
GPGPU-Sim uArch: cycles simulated: 78000  inst.: 25789076 (ipc=330.6) sim_rate=88927 (inst/sec) elapsed = 0:0:04:50 / Tue May 12 19:09:10 2015
GPGPU-Sim PTX: 29000000 instructions simulated : ctaid=(2,9,0) tid=(20,1,0)
GPGPU-Sim PTX: 29100000 instructions simulated : ctaid=(0,4,0) tid=(2,1,0)
GPGPU-Sim uArch: cycles simulated: 78500  inst.: 25961930 (ipc=330.7) sim_rate=88910 (inst/sec) elapsed = 0:0:04:52 / Tue May 12 19:09:12 2015
GPGPU-Sim PTX: 29200000 instructions simulated : ctaid=(2,12,0) tid=(25,3,0)
GPGPU-Sim PTX: 29300000 instructions simulated : ctaid=(1,17,0) tid=(7,2,0)
GPGPU-Sim uArch: cycles simulated: 79000  inst.: 26127501 (ipc=330.7) sim_rate=88869 (inst/sec) elapsed = 0:0:04:54 / Tue May 12 19:09:14 2015
GPGPU-Sim PTX: 29400000 instructions simulated : ctaid=(1,15,0) tid=(30,2,0)
GPGPU-Sim PTX: 29500000 instructions simulated : ctaid=(2,19,0) tid=(22,1,0)
GPGPU-Sim uArch: cycles simulated: 79500  inst.: 26291495 (ipc=330.7) sim_rate=88822 (inst/sec) elapsed = 0:0:04:56 / Tue May 12 19:09:16 2015
GPGPU-Sim PTX: 29600000 instructions simulated : ctaid=(3,2,0) tid=(4,2,0)
GPGPU-Sim PTX: 29700000 instructions simulated : ctaid=(1,4,0) tid=(13,1,0)
GPGPU-Sim uArch: cycles simulated: 80000  inst.: 26456595 (ipc=330.7) sim_rate=88780 (inst/sec) elapsed = 0:0:04:58 / Tue May 12 19:09:18 2015
GPGPU-Sim PTX: 29800000 instructions simulated : ctaid=(1,11,0) tid=(4,1,0)
GPGPU-Sim uArch: cycles simulated: 80500  inst.: 26620190 (ipc=330.7) sim_rate=88439 (inst/sec) elapsed = 0:0:05:01 / Tue May 12 19:09:21 2015
GPGPU-Sim PTX: 29900000 instructions simulated : ctaid=(2,13,0) tid=(3,1,0)
GPGPU-Sim PTX: 30000000 instructions simulated : ctaid=(2,9,0) tid=(30,2,0)
GPGPU-Sim uArch: cycles simulated: 81000  inst.: 26786870 (ipc=330.7) sim_rate=88405 (inst/sec) elapsed = 0:0:05:03 / Tue May 12 19:09:23 2015
GPGPU-Sim PTX: 30100000 instructions simulated : ctaid=(1,15,0) tid=(13,0,0)
GPGPU-Sim PTX: 30200000 instructions simulated : ctaid=(0,17,0) tid=(23,0,0)
GPGPU-Sim uArch: cycles simulated: 81500  inst.: 26955215 (ipc=330.7) sim_rate=88377 (inst/sec) elapsed = 0:0:05:05 / Tue May 12 19:09:25 2015
GPGPU-Sim PTX: 30300000 instructions simulated : ctaid=(2,7,0) tid=(22,0,0)
GPGPU-Sim PTX: 30400000 instructions simulated : ctaid=(0,19,0) tid=(12,0,0)
GPGPU-Sim uArch: cycles simulated: 82000  inst.: 27121874 (ipc=330.8) sim_rate=88344 (inst/sec) elapsed = 0:0:05:07 / Tue May 12 19:09:27 2015
GPGPU-Sim PTX: 30500000 instructions simulated : ctaid=(2,22,0) tid=(12,1,0)
GPGPU-Sim PTX: 30600000 instructions simulated : ctaid=(1,17,0) tid=(25,1,0)
GPGPU-Sim uArch: cycles simulated: 82500  inst.: 27289053 (ipc=330.8) sim_rate=88314 (inst/sec) elapsed = 0:0:05:09 / Tue May 12 19:09:29 2015
GPGPU-Sim PTX: 30700000 instructions simulated : ctaid=(1,12,0) tid=(7,1,0)
GPGPU-Sim PTX: 30800000 instructions simulated : ctaid=(1,13,0) tid=(12,2,0)
GPGPU-Sim uArch: cycles simulated: 83000  inst.: 27458043 (ipc=330.8) sim_rate=88574 (inst/sec) elapsed = 0:0:05:10 / Tue May 12 19:09:30 2015
GPGPU-Sim PTX: 30900000 instructions simulated : ctaid=(2,12,0) tid=(14,2,0)
GPGPU-Sim PTX: 31000000 instructions simulated : ctaid=(1,21,0) tid=(20,3,0)
GPGPU-Sim uArch: cycles simulated: 83500  inst.: 27623237 (ipc=330.8) sim_rate=88536 (inst/sec) elapsed = 0:0:05:12 / Tue May 12 19:09:32 2015
GPGPU-Sim PTX: 31100000 instructions simulated : ctaid=(2,21,0) tid=(0,2,0)
GPGPU-Sim PTX: 31200000 instructions simulated : ctaid=(1,12,0) tid=(25,2,0)
GPGPU-Sim uArch: cycles simulated: 84000  inst.: 27786136 (ipc=330.8) sim_rate=88490 (inst/sec) elapsed = 0:0:05:14 / Tue May 12 19:09:34 2015
GPGPU-Sim PTX: 31300000 instructions simulated : ctaid=(2,10,0) tid=(25,1,0)
GPGPU-Sim PTX: 31400000 instructions simulated : ctaid=(1,15,0) tid=(26,0,0)
GPGPU-Sim uArch: cycles simulated: 84500  inst.: 27958974 (ipc=330.9) sim_rate=88477 (inst/sec) elapsed = 0:0:05:16 / Tue May 12 19:09:36 2015
GPGPU-Sim PTX: 31500000 instructions simulated : ctaid=(2,19,0) tid=(22,3,0)
GPGPU-Sim PTX: 31600000 instructions simulated : ctaid=(2,13,0) tid=(20,2,0)
GPGPU-Sim uArch: cycles simulated: 85000  inst.: 28132054 (ipc=331.0) sim_rate=88744 (inst/sec) elapsed = 0:0:05:17 / Tue May 12 19:09:37 2015
GPGPU-Sim PTX: 31700000 instructions simulated : ctaid=(0,15,0) tid=(29,3,0)
GPGPU-Sim uArch: cycles simulated: 85500  inst.: 28303788 (ipc=331.0) sim_rate=88726 (inst/sec) elapsed = 0:0:05:19 / Tue May 12 19:09:39 2015
GPGPU-Sim PTX: 31800000 instructions simulated : ctaid=(0,14,0) tid=(10,0,0)
GPGPU-Sim PTX: 31900000 instructions simulated : ctaid=(2,14,0) tid=(10,0,0)
GPGPU-Sim uArch: cycles simulated: 86000  inst.: 28468202 (ipc=331.0) sim_rate=88685 (inst/sec) elapsed = 0:0:05:21 / Tue May 12 19:09:41 2015
GPGPU-Sim PTX: 32000000 instructions simulated : ctaid=(1,3,0) tid=(16,1,0)
GPGPU-Sim PTX: 32100000 instructions simulated : ctaid=(2,1,0) tid=(5,1,0)
GPGPU-Sim uArch: cycles simulated: 86500  inst.: 28634424 (ipc=331.0) sim_rate=88651 (inst/sec) elapsed = 0:0:05:23 / Tue May 12 19:09:43 2015
GPGPU-Sim PTX: 32200000 instructions simulated : ctaid=(2,5,0) tid=(2,2,0)
GPGPU-Sim PTX: 32300000 instructions simulated : ctaid=(2,17,0) tid=(14,1,0)
GPGPU-Sim uArch: cycles simulated: 87000  inst.: 28803706 (ipc=331.1) sim_rate=88900 (inst/sec) elapsed = 0:0:05:24 / Tue May 12 19:09:44 2015
GPGPU-Sim PTX: 32400000 instructions simulated : ctaid=(0,19,0) tid=(0,2,0)
[...]
max_icnt2sh_latency = 291645 
mrq_lat_table:87584 	3832 	3389 	11076 	34999 	23223 	7520 	854 	24 	0 	0 	0 	0 	0 	0 	0 	0 	0 	0 	0 	0 	0 	0 	0 	0 	0 	0 	0 	0 	0 	0 	0 	
dq_lat_table:0 	0 	0 	0 	0 	0 	0 	0 	0 	0 	0 	0 	0 	0 	0 	0 	0 	0 	0 	0 	0 	0 	0 	0 	0 	0 	0 	0 	0 	0 	0 	0 	
mf_lat_table:0 	0 	0 	0 	0 	0 	0 	69095 	107788 	581 	2 	0 	0 	0 	0 	0 	0 	0 	0 	0 	0 	0 	0 	0 	0 	0 	0 	0 	0 	0 	0 	0 	
icnt2mem_lat_table:0 	0 	0 	149590 	27152 	675 	191 	67 	1 	0 	0 	0 	0 	0 	0 	0 	0 	0 	0 	0 	0 	0 	0 	0 	
icnt2sh_lat_table:0 	0 	0 	59580 	43433 	8053 	150 	0 	0 	0 	0 	0 	1186 	2533 	4896 	9855 	19794 	27013 	973 	0 	0 	0 	0 	0 	
mf_lat_pw_table:0 	0 	0 	0 	0 	0 	0 	508 	74 	0 	0 	0 	0 	0 	0 	0 	0 	0 	0 	0 	0 	0 	0 	0 	0 	0 	0 	0 	0 	0 	0 	0 	
maximum concurrent accesses to same row:
dram[0]:        23        12        12        10        15        12        32        32        44        55        43        35        30        20        12        17 
dram[1]:        19        14        15        13        15        12        32        32        42        59        42        14        18        21        14        15 
dram[2]:        12        12        15        12        25        13        32        32        47        58        31        33        18        14        12        13 
dram[3]:        10        13        15        16        17        18        32        32        43        46        30        20        20        26        14        14 
dram[4]:        16        20        12        18        17        18        32        32        42        44        18        19        25        21        12        16 
dram[5]:        16        12        13        27        17        21        32        32        68        44        20        32        19        23        13        22 
maximum service time to same row:
dram[0]:     10488     10061     13335     12588     14128     13524     15776     14891      9784      9422     10616      7546     10584     10481      9993      9909 
dram[1]:     11273     10612     13291     12566     14111     13610     15700     15250     11361     10477     11398      7584      8010     10810     10431      9671 
dram[2]:     10559     10625     13035     12597     13690     14300     14887     14768     11108     10870     11545      8130     10613      7622     11406      9514 
dram[3]:     10985     10760     13031     12596     13687     14354     14975     15786      9150      8823      7540     11035     10890     10023      9925     10016 
dram[4]:     10845     11082     12578     13029     13691     14290     15429     16597     10303      9934      7554     11025     11217     10053     10094     11090 
dram[5]:     11028     11029     12591     13027     12442     13146     15004     16587     11278     10201      7534     11020      9915     10016     10878     10000 
average row accesses per activate:
dram[0]:  2.011211  2.140415  2.040724  2.024249  2.061785  2.023307  2.086168  2.060364  2.170534  2.162005  2.090389  2.080094  2.075494  2.060284  2.030647  2.050469 
dram[1]:  2.041903  2.058893  2.067972  2.016298  2.039503  2.029512  2.072870  2.053409  2.153488  2.163954  2.134118  2.021591  2.102381  2.090801  2.067442  2.061105 
dram[2]:  2.023675  2.017321  2.050575  2.054085  2.036447  2.011211  2.092255  2.064000  2.143184  2.194607  2.147674  2.122128  2.065651  2.057783  1.974501  2.018307 
dram[3]:  2.017007  2.035838  2.045558  2.086854  2.100694  2.050459  2.044544  2.078677  2.161972  2.179191  2.050676  2.084785  2.080378  1.983070  2.048165  2.049826 
dram[4]:  2.004561  2.058275  2.034208  2.064815  2.015504  2.068965  2.087899  2.076223  2.204033  2.114253  2.073864  2.126643  2.057377  2.064815  2.061700  2.010204 
dram[5]:  2.069330  2.073944  2.018412  2.156438  2.032695  2.007821  2.019037  2.169213  2.198573  2.174622  2.047619  2.132388  2.058617  2.072009  2.133094  2.010170 
average row locality = 172501/83238 = 2.072383
number of total memory accesses made:
dram[0]:         0         0         0         0         0         0         0         0         0         0         0         0         0         0         0         0 
dram[1]:         0         0         0         0         0         0         0         0         0         0         0         0         0         0         0         0 
dram[2]:         0         0         0         0         0         0         0         0         0         0         0         0         0         0         0         0 
dram[3]:         0         0         0         0         0         0         0         0         0         0         0         0         0         0         0         0 
dram[4]:         0         0         0         0         0         0         0         0         0         0         0         0         0         0         0         0 
dram[5]:         0         0         0         0         0         0         0         0         0         0         0         0         0         0         0         0 
total accesses: 0
min_bank_accesses = 0!
min_chip_accesses = 0!
number of total read accesses:
dram[0]:      1136      1104      1145      1106      1152      1157      1176      1157      1158      1139      1134      1090      1126      1097      1137      1088 
dram[1]:      1136      1098      1138      1088      1153      1134      1189      1156      1149      1139      1127      1104      1113      1095      1125      1096 
dram[2]:      1134      1098      1135      1124      1136      1141      1173      1156      1161      1140      1145      1089      1109      1089      1127      1105 
dram[3]:      1123      1108      1138      1118      1157      1138      1179      1171      1135      1147      1124      1122      1107      1102      1133      1113 
dram[4]:      1107      1113      1127      1122      1159      1147      1174      1171      1146      1144      1130      1108      1106      1118      1112      1119 
dram[5]:      1116      1116      1109      1129      1143      1147      1154      1184      1131      1146      1117      1123      1104      1120      1115      1126 
total reads: 108502
bank skew: 1189/1088 = 1.09
chip skew: 18115/18040 = 1.00
number of total write accesses:
dram[0]:       658       649       659       647       650       666       664       652       713       716       693       676       661       646       652       659 
dram[1]:       667       650       657       644       654       654       660       651       703       722       687       675       653       655       653       658 
dram[2]:       661       649       649       661       652       653       664       650       710       732       702       666       653       656       654       659 
dram[3]:       656       653       658       660       658       650       657       652       707       738       697       673       653       655       653       656 
dram[4]:       651       653       657       662       661       653       655       654       712       725       695       672       651       666       659       654 
dram[5]:       645       651       645       663       660       650       649       662       718       722       689       681       652       664       664       653 
total reads: 63999
bank skew: 738/644 = 1.15
chip skew: 10680/10643 = 1.00
average mf latency per bank:
dram[0]:        244       243       241       243       246       245       251       256       249       263       240       246       242       246       244       246
dram[1]:        241       244       239       245       243       246       252       253       252       262       244       245       242       245       243       246
dram[2]:        243       245       242       241       244       247       253       253       256       255       243       248       244       243       242       244
dram[3]:        243       244       244       241       245       246       253       251       252       248       243       245       243       245       240       243
dram[4]:        243       242       242       244       245       247       254       250       251       249       243       245       245       243       242       242
dram[5]:        243       240       244       240       247       248       254       249       266       251       243       243       245       243       243       242
maximum mf latency per bank:
dram[0]:        456       440       586       461       514       567       550       465       691       821       695       590       414       486       440       404
dram[1]:        400       420       423       497       454       438       514       478       670       784       551       550       517       439       451       415
dram[2]:        444       445       437       524       497       435       539       436       888       734       599       694       451       424       412       446
dram[3]:        418       527       451       416       472       518       591       508       660       736       587       487       448       525       406       444
dram[4]:        424       403       432       498       534       478       530       398       713       707       512       504       442       480       454       524
dram[5]:        466       487       421       431       476       474       455       488      1046       716       588       549       449       493       506       438

Number of Memory Banks Accessed per Memory Operation per Warp (from 0):
0	0	0	0	0	0	0	0	0	0	0	0	0	0	0	0	0	0	0	0	0	0	0	0	0	0	0	0	0	0	0	0	0	0	0	0	0	0	0	0	0	0	0	0	0	0	0	0	0	0	0	0	0	0	0	0	0	0	0	0	0	0	0	0	0	0	0	0	0	0	0	0	0	0	0	0	0	0	0	0	0	0	0	0	0	0	0	0	0	0	0	0	0	0	0	0	
Average # of Memory Banks Accessed per Memory Operation per Warp=-nan

position of mrq chosen
0	0	0	0	0	0	0	0	0	0	0	0	0	0	0	0	

average position of mrq chosen = -nan
Memory Partition 0: 
Cache L2_bank_000:
MSHR contents

Cache L2_bank_001:
MSHR contents

In Dram Latency Queue (total = 0): 
DRAM[0]: 16 bks, busW=4 BL=8 CL=12, tRRD=2 tCCD=6, tRCD=12 tRAS=28 tRP=12 tRC=40
n_cmd=384972 n_nop=304642 n_act=13879 n_pre=13863 n_req=28763 n_rd=36204 n_write=16384 bw_util=0.2732
n_activity=309928 dram_eff=0.3394
bk0: 2272a 337019i bk1: 2208a 339247i bk2: 2290a 336892i bk3: 2212a 337592i bk4: 2304a 336174i bk5: 2314a 335507i bk6: 2352a 335842i bk7: 2314a 335570i bk8: 2316a 336926i bk9: 2278a 336455i bk10: 2268a 335737i bk11: 2180a 337834i bk12: 2252a 336821i bk13: 2194a 337230i bk14: 2274a 336004i bk15: 2176a 336215i 
dram_util_bins: 0 0 0 0 0 0 0 0 0 0
dram_eff_bins: 0 0 0 0 0 0 0 0 0 0
mrqq: max=16 avg=1.5629
Memory Partition 1: 
Cache L2_bank_002:
MSHR contents

Cache L2_bank_003:
MSHR contents

In Dram Latency Queue (total = 0): 
DRAM[1]: 16 bks, busW=4 BL=8 CL=12, tRRD=2 tCCD=6, tRCD=12 tRAS=28 tRP=12 tRC=40
n_cmd=384972 n_nop=304886 n_act=13836 n_pre=13820 n_req=28683 n_rd=36080 n_write=16350 bw_util=0.2724
n_activity=310512 dram_eff=0.3377
bk0: 2272a 337437i bk1: 2196a 339140i bk2: 2276a 338154i bk3: 2176a 337586i bk4: 2306a 335444i bk5: 2268a 337024i bk6: 2378a 334855i bk7: 2312a 336015i bk8: 2298a 336698i bk9: 2278a 336027i bk10: 2254a 336922i bk11: 2208a 336535i bk12: 2226a 338474i bk13: 2190a 337164i bk14: 2250a 336788i bk15: 2192a 336569i 
dram_util_bins: 0 0 0 0 0 0 0 0 0 0
dram_eff_bins: 0 0 0 0 0 0 0 0 0 0
mrqq: max=16 avg=1.53295
Memory Partition 2: 
Cache L2_bank_004:
MSHR contents

Cache L2_bank_005:
MSHR contents

In Dram Latency Queue (total = 0): 
DRAM[2]: 16 bks, busW=4 BL=8 CL=12, tRRD=2 tCCD=6, tRCD=12 tRAS=28 tRP=12 tRC=40
n_cmd=384972 n_nop=304660 n_act=13905 n_pre=13889 n_req=28733 n_rd=36124 n_write=16394 bw_util=0.2728
n_activity=309800 dram_eff=0.339
bk0: 2268a 337548i bk1: 2196a 337169i bk2: 2270a 336931i bk3: 2248a 336875i bk4: 2272a 336147i bk5: 2282a 335316i bk6: 2346a 335594i bk7: 2312a 335826i bk8: 2322a 336492i bk9: 2280a 336506i bk10: 2290a 336904i bk11: 2178a 337661i bk12: 2218a 337279i bk13: 2178a 337887i bk14: 2254a 335492i bk15: 2210a 335226i 
dram_util_bins: 0 0 0 0 0 0 0 0 0 0
dram_eff_bins: 0 0 0 0 0 0 0 0 0 0
mrqq: max=16 avg=1.52715
Memory Partition 3: 
Cache L2_bank_006:
MSHR contents
MSHR: tag=0x80799f80, atomic=0 1 entries : 0x7f5c2104c320 :  mf: uid=2223951, sid10:w07, part=3, addr=0x80799fe0, load , size=32, unknown  status = IN_PARTITION_DRAM (291641), 

Cache L2_bank_007:
MSHR contents

In Dram Latency Queue (total = 0): 
DRAM[3]: 16 bks, busW=4 BL=8 CL=12, tRRD=2 tCCD=6, tRCD=12 tRAS=28 tRP=12 tRC=40
n_cmd=384972 n_nop=304470 n_act=13921 n_pre=13905 n_req=28791 n_rd=36230 n_write=16446 bw_util=0.2737
n_activity=311651 dram_eff=0.338
bk0: 2246a 338728i bk1: 2216a 338271i bk2: 2276a 336078i bk3: 2236a 337531i bk4: 2314a 337123i bk5: 2276a 336344i bk6: 2358a 335783i bk7: 2342a 335387i bk8: 2270a 337505i bk9: 2294a 335706i bk10: 2248a 336463i bk11: 2244a 336737i bk12: 2214a 338774i bk13: 2204a 336448i bk14: 2266a 335401i bk15: 2226a 336823i 
dram_util_bins: 0 0 0 0 0 0 0 0 0 0
dram_eff_bins: 0 0 0 0 0 0 0 0 0 0
mrqq: max=16 avg=1.49735
Memory Partition 4: 
Cache L2_bank_008:
MSHR contents
MSHR: tag=0x8079a000, atomic=0 1 entries : 0x7f5c20be27d0 :  mf: uid=2223950, sid10:w07, part=4, addr=0x8079a000, load , size=128, unknown  status = IN_PARTITION_DRAM (291641), 

Cache L2_bank_009:
MSHR contents

In Dram Latency Queue (total = 0): 
DRAM[4]: 16 bks, busW=4 BL=8 CL=12, tRRD=2 tCCD=6, tRCD=12 tRAS=28 tRP=12 tRC=40
n_cmd=384972 n_nop=304559 n_act=13907 n_pre=13891 n_req=28783 n_rd=36206 n_write=16409 bw_util=0.2733
n_activity=311335 dram_eff=0.338
bk0: 2214a 338084i bk1: 2226a 338495i bk2: 2254a 337654i bk3: 2244a 336531i bk4: 2318a 335374i bk5: 2294a 335977i bk6: 2348a 335844i bk7: 2342a 335277i bk8: 2292a 337190i bk9: 2288a 335315i bk10: 2260a 337008i bk11: 2216a 337056i bk12: 2212a 337058i bk13: 2236a 336642i bk14: 2224a 335816i bk15: 2238a 336074i 
dram_util_bins: 0 0 0 0 0 0 0 0 0 0
dram_eff_bins: 0 0 0 0 0 0 0 0 0 0
mrqq: max=16 avg=1.55106
Memory Partition 5: 
Cache L2_bank_010:
MSHR contents

Cache L2_bank_011:
MSHR contents

In Dram Latency Queue (total = 0): 
DRAM[5]: 16 bks, busW=4 BL=8 CL=12, tRRD=2 tCCD=6, tRCD=12 tRAS=28 tRP=12 tRC=40
n_cmd=384972 n_nop=304879 n_act=13790 n_pre=13774 n_req=28748 n_rd=36160 n_write=16369 bw_util=0.2729
n_activity=310796 dram_eff=0.338
bk0: 2232a 339066i bk1: 2232a 338909i bk2: 2218a 337586i bk3: 2258a 337877i bk4: 2286a 336058i bk5: 2294a 335806i bk6: 2308a 335096i bk7: 2368a 335323i bk8: 2262a 337230i bk9: 2292a 336261i bk10: 2234a 337186i bk11: 2246a 336722i bk12: 2208a 337225i bk13: 2240a 337100i bk14: 2230a 336775i bk15: 2252a 336216i 
dram_util_bins: 0 0 0 0 0 0 0 0 0 0
dram_eff_bins: 0 0 0 0 0 0 0 0 0 0
mrqq: max=16 avg=1.53342

========= L2 cache stats =========
L2_cache_bank[0]: Access = 14839, Miss = 9164, Miss_rate = 0.618, Pending_hits = 257, Reservation_fails = 246
L2_cache_bank[1]: Access = 14802, Miss = 8938, Miss_rate = 0.604, Pending_hits = 301, Reservation_fails = 181
L2_cache_bank[2]: Access = 14820, Miss = 9130, Miss_rate = 0.616, Pending_hits = 267, Reservation_fails = 178
L2_cache_bank[3]: Access = 14775, Miss = 8910, Miss_rate = 0.603, Pending_hits = 284, Reservation_fails = 0
L2_cache_bank[4]: Access = 14832, Miss = 9120, Miss_rate = 0.615, Pending_hits = 276, Reservation_fails = 193
L2_cache_bank[5]: Access = 14772, Miss = 8942, Miss_rate = 0.605, Pending_hits = 275, Reservation_fails = 1
L2_cache_bank[6]: Access = 14848, Miss = 9096, Miss_rate = 0.613, Pending_hits = 281, Reservation_fails = 189
L2_cache_bank[7]: Access = 14787, Miss = 9019, Miss_rate = 0.610, Pending_hits = 264, Reservation_fails = 1
L2_cache_bank[8]: Access = 14821, Miss = 9061, Miss_rate = 0.611, Pending_hits = 272, Reservation_fails = 168
L2_cache_bank[9]: Access = 14779, Miss = 9042, Miss_rate = 0.612, Pending_hits = 262, Reservation_fails = 1
L2_cache_bank[10]: Access = 14815, Miss = 8989, Miss_rate = 0.607, Pending_hits = 309, Reservation_fails = 137
L2_cache_bank[11]: Access = 14786, Miss = 9091, Miss_rate = 0.615, Pending_hits = 271, Reservation_fails = 0
L2_total_cache_accesses = 177676
L2_total_cache_misses = 108502
L2_total_cache_miss_rate = 0.6107
L2_total_cache_pending_hits = 3319
L2_total_cache_reservation_fails = 1295
L2_total_cache_breakdown:
	L2_cache_stats_breakdown[GLOBAL_ACC_R][HIT] = 50100
	L2_cache_stats_breakdown[GLOBAL_ACC_R][HIT_RESERVED] = 2218
	L2_cache_stats_breakdown[GLOBAL_ACC_R][MISS] = 58883
	L2_cache_stats_breakdown[CONST_ACC_R][HIT] = 11
	L2_cache_stats_breakdown[CONST_ACC_R][HIT_RESERVED] = 3
	L2_cache_stats_breakdown[CONST_ACC_R][MISS] = 1
	L2_cache_stats_breakdown[CONST_ACC_R][RESERVATION_FAIL] = 109
	L2_cache_stats_breakdown[GLOBAL_ACC_W][HIT] = 15590
	L2_cache_stats_breakdown[GLOBAL_ACC_W][HIT_RESERVED] = 1056
	L2_cache_stats_breakdown[GLOBAL_ACC_W][MISS] = 49604
	L2_cache_stats_breakdown[GLOBAL_ACC_W][RESERVATION_FAIL] = 6
	L2_cache_stats_breakdown[INST_ACC_R][HIT] = 154
	L2_cache_stats_breakdown[INST_ACC_R][HIT_RESERVED] = 42
	L2_cache_stats_breakdown[INST_ACC_R][MISS] = 14
	L2_cache_stats_breakdown[INST_ACC_R][RESERVATION_FAIL] = 1180
L2_cache_data_port_util = 0.075
L2_cache_fill_port_util = 0.124

icnt_total_pkts_mem_to_simt=623350
icnt_total_pkts_simt_to_mem=337676
LD_mem_lat_dist  0 0 0 0 0 0 0 0 0 0 0 0 0 0 0 0 0 0 0 0 0 0 0 0 0 0 0
ST_mem_lat_dist  0 0 0 0 0 0 0 0 0 0 0 0 0 0 0 0 0 0 0 0 0 0 0 0 0 0 0
----------------------------Interconnect-DETAILS--------------------------------
Class 0:
Packet latency average = 11.5227
	minimum = 6
	maximum = 199
Network latency average = 10.5325
	minimum = 6
	maximum = 198
Slowest packet = 6855
Flit latency average = 9.24221
	minimum = 6
	maximum = 194
Slowest flit = 19231
Fragmentation average = 0.000844233
	minimum = 0
	maximum = 186
Injected packet rate average = 0.0451273
	minimum = 0.0350528 (at node 13)
	maximum = 0.050911 (at node 21)
Accepted packet rate average = 0.0451273
	minimum = 0.0350528 (at node 13)
	maximum = 0.050911 (at node 21)
Injected flit rate average = 0.122044
	minimum = 0.0652263 (at node 13)
	maximum = 0.17882 (at node 21)
Accepted flit rate average= 0.122044
	minimum = 0.0963668 (at node 20)
	maximum = 0.156313 (at node 3)
Injected packet length average = 2.70443
Accepted packet length average = 2.70443
Total in-flight flits = 0 (0 measured)
====== Overall Traffic Statistics ======
====== Traffic class 0 ======
Packet latency average = 11.5227 (1 samples)
	minimum = 6 (1 samples)
	maximum = 199 (1 samples)
Network latency average = 10.5325 (1 samples)
	minimum = 6 (1 samples)
	maximum = 198 (1 samples)
Flit latency average = 9.24221 (1 samples)
	minimum = 6 (1 samples)
	maximum = 194 (1 samples)
Fragmentation average = 0.000844233 (1 samples)
	minimum = 0 (1 samples)
	maximum = 186 (1 samples)
Injected packet rate average = 0.0451273 (1 samples)
	minimum = 0.0350528 (1 samples)
	maximum = 0.050911 (1 samples)
Accepted packet rate average = 0.0451273 (1 samples)
	minimum = 0.0350528 (1 samples)
	maximum = 0.050911 (1 samples)
Injected flit rate average = 0.122044 (1 samples)
	minimum = 0.0652263 (1 samples)
	maximum = 0.17882 (1 samples)
Accepted flit rate average = 0.122044 (1 samples)
	minimum = 0.0963668 (1 samples)
	maximum = 0.156313 (1 samples)
Injected packet size average = 2.70443 (1 samples)
Accepted packet size average = 2.70443 (1 samples)
Hops average = 1 (1 samples)
----------------------------END-of-Interconnect-DETAILS-------------------------


gpgpu_simulation_time = 0 days, 0 hrs, 14 min, 3 sec (843 sec)
gpgpu_simulation_rate = 86253 (inst/sec)
gpgpu_simulation_rate = 345 (cycle/sec)
GPGPU-Sim: synchronize waiting for inactive GPU simulation
GPGPU-Sim API: Stream Manager State
GPGPU-Sim: detected inactive GPU simulation thread

1x GPU_laplace3d: 842205.937500 (ms) 

Copy u2 to host: 412.289001 (ms) 

1x Gold_laplace3d: 4.053000 (ms) 
 

 rms error = 0.000000 
CUDA_SAFE_CALL( cudaFree(d_u1) );
CUDA_SAFE_CALL( cudaFree(d_u2) );
free(h_u1);
free(h_u2);
free(h_u3);

Press ENTER to exit...
