

        *** GPGPU-Sim Simulator Version 3.2.2  [build 0] ***


GPGPU-Sim PTX: simulation mode 0 (can change with PTX_SIM_MODE_FUNC environment variable:
               1=functional simulation only, 0=detailed performance simulator)
GPGPU-Sim: Configuration options:

-network_mode                           1 # Interconnection network mode
-inter_config_file   config_fermi_islip.icnt # Interconnection network config file
-gpgpu_ptx_use_cuobjdump                    1 # Use cuobjdump to extract ptx and sass from binaries
-gpgpu_experimental_lib_support                    0 # Try to extract code from cuda libraries [Broken because of unknown cudaGetExportTable]
-gpgpu_ptx_convert_to_ptxplus                    0 # Convert SASS (native ISA) to ptxplus and run ptxplus
-gpgpu_ptx_force_max_capability                   20 # Force maximum compute capability
-gpgpu_ptx_inst_debug_to_file                    0 # Dump executed instructions' debug information to file
-gpgpu_ptx_inst_debug_file       inst_debug.txt # Executed instructions' debug output file
-gpgpu_ptx_inst_debug_thread_uid                    1 # Thread UID for executed instructions' debug output
-gpgpu_simd_model                       1 # 1 = post-dominator
-gpgpu_shader_core_pipeline              1536:32 # shader core pipeline config, i.e., {<nthread>:<warpsize>}
-gpgpu_tex_cache:l1  4:128:24,L:R:m:N:L,F:128:4,128:2 # per-shader L1 texture cache  (READ-ONLY) config  {<nsets>:<bsize>:<assoc>,<rep>:<wr>:<alloc>:<wr_alloc>,<mshr>:<N>:<merge>,<mq>:<rf>}
-gpgpu_const_cache:l1 64:64:2,L:R:f:N:L,A:2:32,4 # per-shader L1 constant memory cache  (READ-ONLY) config  {<nsets>:<bsize>:<assoc>,<rep>:<wr>:<alloc>:<wr_alloc>,<mshr>:<N>:<merge>,<mq>} 
-gpgpu_cache:il1     4:128:4,L:R:f:N:L,A:2:32,4 # shader L1 instruction cache config  {<nsets>:<bsize>:<assoc>,<rep>:<wr>:<alloc>:<wr_alloc>,<mshr>:<N>:<merge>,<mq>} 
-gpgpu_cache:dl1     32:128:4,L:L:m:N:H,A:32:8,8 # per-shader L1 data cache config  {<nsets>:<bsize>:<assoc>,<rep>:<wr>:<alloc>:<wr_alloc>,<mshr>:<N>:<merge>,<mq> | none}
-gpgpu_cache:dl1PrefL1                 none # per-shader L1 data cache config  {<nsets>:<bsize>:<assoc>,<rep>:<wr>:<alloc>:<wr_alloc>,<mshr>:<N>:<merge>,<mq> | none}
-gpgpu_cache:dl1PreShared                 none # per-shader L1 data cache config  {<nsets>:<bsize>:<assoc>,<rep>:<wr>:<alloc>:<wr_alloc>,<mshr>:<N>:<merge>,<mq> | none}
-gmem_skip_L1D                          0 # global memory access skip L1D cache (implements -Xptxas -dlcm=cg, default=no skip)
-gpgpu_perfect_mem                      0 # enable perfect memory mode (no cache miss)
-n_regfile_gating_group                    4 # group of lanes that should be read/written together)
-gpgpu_clock_gated_reg_file                    0 # enable clock gated reg file for power calculations
-gpgpu_clock_gated_lanes                    0 # enable clock gated lanes for power calculations
-gpgpu_shader_registers                32768 # Number of registers per shader core. Limits number of concurrent CTAs. (default 8192)
-gpgpu_shader_cta                       8 # Maximum number of concurrent CTAs in shader (default 8)
-gpgpu_num_cta_barriers                   16 # Maximum number of named barriers per CTA (default 16)
-gpgpu_n_clusters                      15 # number of processing clusters
-gpgpu_n_cores_per_cluster                    1 # number of simd cores per cluster
-gpgpu_n_cluster_ejection_buffer_size                    8 # number of packets in ejection buffer
-gpgpu_n_ldst_response_buffer_size                    2 # number of response packets in ld/st unit ejection buffer
-gpgpu_shmem_size                   16384 # Size of shared memory per shader core (default 16kB)
-gpgpu_shmem_size                   49152 # Size of shared memory per shader core (default 16kB)
-gpgpu_shmem_size_PrefL1                16384 # Size of shared memory per shader core (default 16kB)
-gpgpu_shmem_size_PrefShared                16384 # Size of shared memory per shader core (default 16kB)
-gpgpu_shmem_num_banks                   32 # Number of banks in the shared memory in each shader core (default 16)
-gpgpu_shmem_limited_broadcast                    0 # Limit shared memory to do one broadcast per cycle (default on)
-gpgpu_shmem_warp_parts                    1 # Number of portions a warp is divided into for shared memory bank conflict check 
-gpgpu_warpdistro_shader                   -1 # Specify which shader core to collect the warp size distribution from
-gpgpu_warp_issue_shader                    0 # Specify which shader core to collect the warp issue distribution from
-gpgpu_local_mem_map                    1 # Mapping from local memory space address to simulated GPU physical address space (default = enabled)
-gpgpu_num_reg_banks                   16 # Number of register banks (default = 8)
-gpgpu_reg_bank_use_warp_id                    0 # Use warp ID in mapping registers to banks (default = off)
-gpgpu_operand_collector_num_units_sp                    6 # number of collector units (default = 4)
-gpgpu_operand_collector_num_units_sfu                    8 # number of collector units (default = 4)
-gpgpu_operand_collector_num_units_mem                    2 # number of collector units (default = 2)
-gpgpu_operand_collector_num_units_gen                    0 # number of collector units (default = 0)
-gpgpu_operand_collector_num_in_ports_sp                    2 # number of collector unit in ports (default = 1)
-gpgpu_operand_collector_num_in_ports_sfu                    1 # number of collector unit in ports (default = 1)
-gpgpu_operand_collector_num_in_ports_mem                    1 # number of collector unit in ports (default = 1)
-gpgpu_operand_collector_num_in_ports_gen                    0 # number of collector unit in ports (default = 0)
-gpgpu_operand_collector_num_out_ports_sp                    2 # number of collector unit in ports (default = 1)
-gpgpu_operand_collector_num_out_ports_sfu                    1 # number of collector unit in ports (default = 1)
-gpgpu_operand_collector_num_out_ports_mem                    1 # number of collector unit in ports (default = 1)
-gpgpu_operand_collector_num_out_ports_gen                    0 # number of collector unit in ports (default = 0)
-gpgpu_coalesce_arch                   13 # Coalescing arch (default = 13, anything else is off for now)
-gpgpu_num_sched_per_core                    1 # Number of warp schedulers per core
-gpgpu_max_insn_issue_per_warp                    1 # Max number of instructions that can be issued per warp in one cycle by scheduler
-gpgpu_simt_core_sim_order                    1 # Select the simulation order of cores in a cluster (0=Fix, 1=Round-Robin)
-gpgpu_pipeline_widths        2,1,1,2,1,1,2 # Pipeline widths ID_OC_SP,ID_OC_SFU,ID_OC_MEM,OC_EX_SP,OC_EX_SFU,OC_EX_MEM,EX_WB
-gpgpu_num_sp_units                     2 # Number of SP units (default=1)
-gpgpu_num_sfu_units                    1 # Number of SF units (default=1)
-gpgpu_num_mem_units                    1 # Number if ldst units (default=1) WARNING: not hooked up to anything
-gpgpu_scheduler                      gto # Scheduler configuration: < lrr | gto | two_level_active > If two_level_active:<num_active_warps>:<inner_prioritization>:<outer_prioritization>For complete list of prioritization values see shader.h enum scheduler_prioritization_typeDefault: gto
-gpgpu_dram_scheduler                    1 # 0 = fifo, 1 = FR-FCFS (defaul)
-gpgpu_dram_partition_queues              8:8:8:8 # i2$:$2d:d2$:$2i
-l2_ideal                               0 # Use a ideal L2 cache that always hit
-gpgpu_cache:dl2     64:128:8,L:B:m:W:L,A:32:4,4:0,32 # unified banked L2 data cache config  {<nsets>:<bsize>:<assoc>,<rep>:<wr>:<alloc>:<wr_alloc>,<mshr>:<N>:<merge>,<mq>}
-gpgpu_cache:dl2_texture_only                    0 # L2 cache used for texture only
-gpgpu_n_mem                            6 # number of memory modules (e.g. memory controllers) in gpu
-gpgpu_n_sub_partition_per_mchannel                    2 # number of memory subpartition in each memory module
-gpgpu_n_mem_per_ctrlr                    2 # number of memory chips per memory controller
-gpgpu_memlatency_stat                   14 # track and display latency statistics 0x2 enables MC, 0x4 enables queue logs
-gpgpu_frfcfs_dram_sched_queue_size                   16 # 0 = unlimited (default); # entries per chip
-gpgpu_dram_return_queue_size                  116 # 0 = unlimited (default); # entries per chip
-gpgpu_dram_buswidth                    4 # default = 4 bytes (8 bytes per cycle at DDR)
-gpgpu_dram_burst_length                    8 # Burst length of each DRAM request (default = 4 data bus cycle)
-dram_data_command_freq_ratio                    4 # Frequency ratio between DRAM data bus and command bus (default = 2 times, i.e. DDR)
-gpgpu_dram_timing_opt nbk=16:CCD=2:RRD=6:RCD=12:RAS=28:RP=12:RC=40: CL=12:WL=4:CDLR=5:WR=12:nbkgrp=4:CCDL=3:RTPL=2 # DRAM timing parameters = {nbk:tCCD:tRRD:tRCD:tRAS:tRP:tRC:CL:WL:tCDLR:tWR:nbkgrp:tCCDL:tRTPL}
-rop_latency                          120 # ROP queue latency (default 85)
-dram_latency                         100 # DRAM latency (default 30)
-gpgpu_mem_addr_mapping dramid@8;00000000.00000000.00000000.00000000.0000RRRR.RRRRRRRR.BBBCCCCB.CCSSSSSS # mapping memory address to dram model {dramid@<start bit>;<memory address map>}
-gpgpu_mem_addr_test                    0 # run sweep test to check address mapping for aliased address
-gpgpu_mem_address_mask                    1 # 0 = old addressing mask, 1 = new addressing mask, 2 = new add. mask + flipped bank sel and chip sel bits
-gpuwattch_xml_file  gpuwattch_gtx480.xml # GPUWattch XML file
-power_simulation_enabled                    1 # Turn on power simulator (1=On, 0=Off)
-power_per_cycle_dump                    0 # Dump detailed power output each cycle
-power_trace_enabled                    0 # produce a file for the power trace (1=On, 0=Off)
-power_trace_zlevel                     6 # Compression level of the power trace output log (0=no comp, 9=highest)
-steady_power_levels_enabled                    0 # produce a file for the steady power levels (1=On, 0=Off)
-steady_state_definition                  8:4 # allowed deviation:number of samples
-gpgpu_max_cycle                        0 # terminates gpu simulation early (0 = no limit)
-gpgpu_max_insn                         0 # terminates gpu simulation early (0 = no limit)
-gpgpu_max_cta                          0 # terminates gpu simulation early (0 = no limit)
-gpgpu_runtime_stat                   500 # display runtime statistics such as dram utilization {<freq>:<flag>}
-liveness_message_freq                    1 # Minimum number of seconds between simulation liveness messages (0 = always print)
-gpgpu_flush_l1_cache                    0 # Flush L1 cache at the end of each kernel call
-gpgpu_flush_l2_cache                    0 # Flush L2 cache at the end of each kernel call
-gpgpu_deadlock_detect                    1 # Stop the simulation at deadlock (1=on (default), 0=off)
-gpgpu_ptx_instruction_classification                    0 # if enabled will classify ptx instruction types per kernel (Max 255 kernels now)
-gpgpu_ptx_sim_mode                     0 # Select between Performance (default) or Functional simulation (1)
-gpgpu_clock_domains 700.0:700.0:700.0:924.0 # Clock Domain Frequencies in MhZ {<Core Clock>:<ICNT Clock>:<L2 Clock>:<DRAM Clock>}
-gpgpu_max_concurrent_kernel                    8 # maximum kernels that can run concurrently on GPU
-gpgpu_cflog_interval                    0 # Interval between each snapshot in control flow logger
-visualizer_enabled                     0 # Turn on visualizer output (1=On, 0=Off)
-visualizer_outputfile                 NULL # Specifies the output log file for visualizer
-visualizer_zlevel                      6 # Compression level of the visualizer output log (0=no comp, 9=highest)
-trace_enabled                          0 # Turn on traces
-trace_components                    none # comma seperated list of traces to enable. Complete list found in trace_streams.tup. Default none
-trace_sampling_core                    0 # The core which is printed using CORE_DPRINTF. Default 0
-trace_sampling_memory_partition                   -1 # The memory partition which is printed using MEMPART_DPRINTF. Default -1 (i.e. all)
-enable_ptx_file_line_stats                    1 # Turn on PTX source line statistic profiling. (1 = On)
-ptx_line_stats_filename gpgpu_inst_stats.txt # Output file for PTX source line statistics.
-save_embedded_ptx                      0 # saves ptx files embedded in binary as <n>.ptx
-keep                                   0 # keep intermediate files created by GPGPU-Sim when interfacing with external programs
-gpgpu_ptx_save_converted_ptxplus                    0 # Saved converted ptxplus to a file
-ptx_opcode_latency_int         4,13,4,5,145 # Opcode latencies for integers <ADD,MAX,MUL,MAD,DIV>Default 1,1,19,25,145
-ptx_opcode_latency_fp          4,13,4,5,39 # Opcode latencies for single precision floating points <ADD,MAX,MUL,MAD,DIV>Default 1,1,1,1,30
-ptx_opcode_latency_dp         8,19,8,8,330 # Opcode latencies for double precision floating points <ADD,MAX,MUL,MAD,DIV>Default 8,8,8,8,335
-ptx_opcode_initiation_int            1,2,2,1,8 # Opcode initiation intervals for integers <ADD,MAX,MUL,MAD,DIV>Default 1,1,4,4,32
-ptx_opcode_initiation_fp            1,2,1,1,4 # Opcode initiation intervals for single precision floating points <ADD,MAX,MUL,MAD,DIV>Default 1,1,1,1,5
-ptx_opcode_initiation_dp         8,16,8,8,130 # Opcode initiation intervals for double precision floating points <ADD,MAX,MUL,MAD,DIV>Default 8,8,8,8,130
DRAM Timing Options:
nbk                                    16 # number of banks
CCD                                     2 # column to column delay
RRD                                     6 # minimal delay between activation of rows in different banks
RCD                                    12 # row to column delay
RAS                                    28 # time needed to activate row
RP                                     12 # time needed to precharge (deactivate) row
RC                                     40 # row cycle time
CDLR                                    5 # switching from write to read (changes tWTR)
WR                                     12 # last data-in to row precharge
CL                                     12 # CAS latency
WL                                      4 # Write latency
nbkgrp                                  4 # number of bank groups
CCDL                                    3 # column to column delay between accesses to different bank groups
RTPL                                    2 # read to precharge delay between accesses to different bank groups
Total number of memory sub partition = 12
addr_dec_mask[CHIP]  = 0000000000000000 	high:64 low:0
addr_dec_mask[BK]    = 000000000000e100 	high:16 low:8
addr_dec_mask[ROW]   = 000000000fff0000 	high:28 low:16
addr_dec_mask[COL]   = 0000000000001eff 	high:13 low:0
addr_dec_mask[BURST] = 000000000000003f 	high:6 low:0
sub_partition_id_mask = 0000000000000100
GPGPU-Sim uArch: clock freqs: 700000000.000000:700000000.000000:700000000.000000:924000000.000000
GPGPU-Sim uArch: clock periods: 0.00000000142857142857:0.00000000142857142857:0.00000000142857142857:0.00000000108225108225
*** Initializing Memory Statistics ***
GPGPU-Sim uArch: interconnect node map (shaderID+MemID to icntID)
GPGPU-Sim uArch: Memory nodes ID start from index: 15
GPGPU-Sim uArch:    0   1   2   3   4
GPGPU-Sim uArch:    5   6   7   8   9
GPGPU-Sim uArch:   10  11  12  13  14
GPGPU-Sim uArch:   15  16  17  18  19
GPGPU-Sim uArch:   20  21  22  23  24
GPGPU-Sim uArch:   25  26
GPGPU-Sim uArch: interconnect node reverse map (icntID to shaderID+MemID)
GPGPU-Sim uArch: Memory nodes start from ID: 15
GPGPU-Sim uArch:    0   1   2   3   4
GPGPU-Sim uArch:    5   6   7   8   9
GPGPU-Sim uArch:   10  11  12  13  14
GPGPU-Sim uArch:   15  16  17  18  19
GPGPU-Sim uArch:   20  21  22  23  24
GPGPU-Sim uArch:   25  26
7c3d5ae41cea1e926c25170af925835d  /home/kishore/project_source/gpu_class_proj/gpgpusim-benchmarks-master/bin/release/LPS
GPGPU-Sim uArch: performance model initialization complete.
GPGPU-Sim PTX: __cudaRegisterFatBinary, fat_cubin_handle = 1, filename=laplace3d.cu
self exe links to: /home/kishore/project_source/gpu_class_proj/gpgpusim-benchmarks-master/bin/release/LPS
Running md5sum using "md5sum /home/kishore/project_source/gpu_class_proj/gpgpusim-benchmarks-master/bin/release/LPS "
Running cuobjdump using "$CUDA_INSTALL_PATH/bin/cuobjdump -ptx -elf -sass /home/kishore/project_source/gpu_class_proj/gpgpusim-benchmarks-master/bin/release/LPS > _cuobjdump_complete_output_00b0J3"
Parsing file _cuobjdump_complete_output_00b0J3
######### cuobjdump parser ########
## Adding new section PTX
Adding ptx filename: _cuobjdump_1.ptx
Adding arch: sm_10
Adding identifier: laplace3d.cu
## Adding new section ELF
Adding arch: sm_10
Adding identifier: laplace3d.cu
## Adding new section ELF
Adding arch: sm_20
Adding identifier: laplace3d.cu
## Adding new section PTX
Adding ptx filename: _cuobjdump_2.ptx
Adding arch: sm_20
Adding identifier: laplace3d.cu
Done parsing!!!
GPGPU-Sim PTX: __cudaRegisterFunction _Z13GPU_laplace3diiiiPfS_ : hostFun 0x0x403bc0, fat_cubin_handle = 1
GPGPU-Sim PTX: allocating shared region for "__cuda___cuda_local_var_34196_33_non_const_u132" from 0x0 to 0x990 (shared memory space)
GPGPU-Sim PTX: instruction assembly for function '_Z13GPU_laplace3diiiiPfS_'...   done.
GPGPU-Sim PTX: finding reconvergence points for '_Z13GPU_laplace3diiiiPfS_'...
GPGPU-Sim PTX: Finding dominators for '_Z13GPU_laplace3diiiiPfS_'...
GPGPU-Sim PTX: Finding immediate dominators for '_Z13GPU_laplace3diiiiPfS_'...
GPGPU-Sim PTX: Finding postdominators for '_Z13GPU_laplace3diiiiPfS_'...
GPGPU-Sim PTX: Finding immediate postdominators for '_Z13GPU_laplace3diiiiPfS_'...
GPGPU-Sim PTX: pre-decoding instructions for '_Z13GPU_laplace3diiiiPfS_'...
GPGPU-Sim PTX: reconvergence points for _Z13GPU_laplace3diiiiPfS_...
GPGPU-Sim PTX:  1 (potential) branch divergence @  PC=0x060 (_1.ptx:82) @!%p1 bra $Lt_0_14338;
GPGPU-Sim PTX:    immediate post dominator      @  PC=0x230 (_1.ptx:154) add.s32 %r57, %r37, %r12;
GPGPU-Sim PTX:  2 (potential) branch divergence @  PC=0x080 (_1.ptx:86) @%p2 bra $Lt_0_14850;
GPGPU-Sim PTX:    immediate post dominator      @  PC=0x120 (_1.ptx:113) add.s32 %r30, %r16, 1;
GPGPU-Sim PTX:  3 (potential) branch divergence @  PC=0x0a0 (_1.ptx:92) bra.uni $Lt_0_14594;
GPGPU-Sim PTX:    immediate post dominator      @  PC=0x120 (_1.ptx:113) add.s32 %r30, %r16, 1;
GPGPU-Sim PTX:  4 (potential) branch divergence @  PC=0x200 (_1.ptx:145) bra.uni $Lt_0_14082;
GPGPU-Sim PTX:    immediate post dominator      @  PC=0x230 (_1.ptx:154) add.s32 %r57, %r37, %r12;
GPGPU-Sim PTX:  5 (potential) branch divergence @  PC=0x290 (_1.ptx:166) @%p5 bra $Lt_0_15106;
GPGPU-Sim PTX:    immediate post dominator      @  PC=0x308 (_1.ptx:183) mov.u64 %rd1, __cuda___cuda_local_var_34196_33_non_const_u132;
GPGPU-Sim PTX:  6 (potential) branch divergence @  PC=0x320 (_1.ptx:186) @!%p6 bra $Lt_0_15618;
GPGPU-Sim PTX:    immediate post dominator      @  PC=0x380 (_1.ptx:200) ld.param.s32 %r73, [__cudaparm__Z13GPU_laplace3diiiiPfS__NZ];
GPGPU-Sim PTX:  7 (potential) branch divergence @  PC=0x398 (_1.ptx:203) @%p7 bra $Lt_0_16130;
GPGPU-Sim PTX:    immediate post dominator      @  PC=0x6d8 (_1.ptx:335) exit;
GPGPU-Sim PTX:  8 (potential) branch divergence @  PC=0x408 (_1.ptx:219) @%p8 bra $Lt_0_17410;
GPGPU-Sim PTX:    immediate post dominator      @  PC=0x4a0 (_1.ptx:245) @!%p6 bra $Lt_0_18434;
GPGPU-Sim PTX:  9 (potential) branch divergence @  PC=0x468 (_1.ptx:235) @%p9 bra $Lt_0_17410;
GPGPU-Sim PTX:    immediate post dominator      @  PC=0x4a0 (_1.ptx:245) @!%p6 bra $Lt_0_18434;
GPGPU-Sim PTX: 10 (potential) branch divergence @  PC=0x4a0 (_1.ptx:245) @!%p6 bra $Lt_0_18434;
GPGPU-Sim PTX:    immediate post dominator      @  PC=0x548 (_1.ptx:273) bar.sync 0;
GPGPU-Sim PTX: 11 (potential) branch divergence @  PC=0x510 (_1.ptx:262) @%p10 bra $Lt_0_18434;
GPGPU-Sim PTX:    immediate post dominator      @  PC=0x548 (_1.ptx:273) bar.sync 0;
GPGPU-Sim PTX: 12 (potential) branch divergence @  PC=0x560 (_1.ptx:276) @%p11 bra $Lt_0_18946;
GPGPU-Sim PTX:    immediate post dominator      @  PC=0x6b8 (_1.ptx:329) bar.sync 0;
GPGPU-Sim PTX: 13 (potential) branch divergence @  PC=0x578 (_1.ptx:280) @%p12 bra $Lt_0_20738;
GPGPU-Sim PTX:    immediate post dominator      @  PC=0x688 (_1.ptx:321) ld.param.u64 %rd35, [__cudaparm__Z13GPU_laplace3diiiiPfS__d_u2];
GPGPU-Sim PTX: 14 (potential) branch divergence @  PC=0x588 (_1.ptx:282) @%p13 bra $Lt_0_20738;
GPGPU-Sim PTX:    immediate post dominator      @  PC=0x688 (_1.ptx:321) ld.param.u64 %rd35, [__cudaparm__Z13GPU_laplace3diiiiPfS__d_u2];
GPGPU-Sim PTX: 15 (potential) branch divergence @  PC=0x5a0 (_1.ptx:285) @%p14 bra $Lt_0_20738;
GPGPU-Sim PTX:    immediate post dominator      @  PC=0x688 (_1.ptx:321) ld.param.u64 %rd35, [__cudaparm__Z13GPU_laplace3diiiiPfS__d_u2];
GPGPU-Sim PTX: 16 (potential) branch divergence @  PC=0x5b0 (_1.ptx:287) @%p15 bra $Lt_0_20738;
GPGPU-Sim PTX:    immediate post dominator      @  PC=0x688 (_1.ptx:321) ld.param.u64 %rd35, [__cudaparm__Z13GPU_laplace3diiiiPfS__d_u2];
GPGPU-Sim PTX: 17 (potential) branch divergence @  PC=0x5c8 (_1.ptx:290) @%p16 bra $Lt_0_20738;
GPGPU-Sim PTX:    immediate post dominator      @  PC=0x688 (_1.ptx:321) ld.param.u64 %rd35, [__cudaparm__Z13GPU_laplace3diiiiPfS__d_u2];
GPGPU-Sim PTX: 18 (potential) branch divergence @  PC=0x5d8 (_1.ptx:292) @%p17 bra $L_0_12546;
GPGPU-Sim PTX:    immediate post dominator      @  PC=0x688 (_1.ptx:321) ld.param.u64 %rd35, [__cudaparm__Z13GPU_laplace3diiiiPfS__d_u2];
GPGPU-Sim PTX: 19 (potential) branch divergence @  PC=0x600 (_1.ptx:300) bra.uni $L_0_12290;
GPGPU-Sim PTX:    immediate post dominator      @  PC=0x688 (_1.ptx:321) ld.param.u64 %rd35, [__cudaparm__Z13GPU_laplace3diiiiPfS__d_u2];
GPGPU-Sim PTX: 20 (potential) branch divergence @  PC=0x6d0 (_1.ptx:332) @%p18 bra $Lt_0_16642;
GPGPU-Sim PTX:    immediate post dominator      @  PC=0x6d8 (_1.ptx:335) exit;
GPGPU-Sim PTX: ... end of reconvergence points for _Z13GPU_laplace3diiiiPfS_
GPGPU-Sim PTX: ... done pre-decoding instructions for '_Z13GPU_laplace3diiiiPfS_'.
GPGPU-Sim PTX: finished parsing EMBEDDED .ptx file _1.ptx
Adding _cuobjdump_2.ptx with cubin handle 1
GPGPU-Sim PTX: extracting embedded .ptx to temporary file "_ptx_YLOKUV"
Running: cat _ptx_YLOKUV | sed 's/.version 1.5/.version 1.4/' | sed 's/, texmode_independent//' | sed 's/\(\.extern \.const\[1\] .b8 \w\+\)\[\]/\1\[1\]/' | sed 's/const\[.\]/const\[0\]/g' > _ptx2_s7rw5N
GPGPU-Sim PTX: generating ptxinfo using "$CUDA_INSTALL_PATH/bin/ptxas --gpu-name=sm_20 -v _ptx2_s7rw5N --output-file  /dev/null 2> _ptx_YLOKUVinfo"
GPGPU-Sim PTX: Kernel '_Z13GPU_laplace3diiiiPfS_' : regs=17, lmem=0, smem=2448, cmem=64
GPGPU-Sim PTX: removing ptxinfo using "rm -f _ptx_YLOKUV _ptx2_s7rw5N _ptx_YLOKUVinfo"
GPGPU-Sim PTX: loading globals with explicit initializers... 
GPGPU-Sim PTX: finished loading globals (0 bytes total).
GPGPU-Sim PTX: loading constants with explicit initializers...  done.

Grid dimensions: 100 x 100 x 100
GPGPU-Sim PTX: cudaMallocPitch (width = 400)
GPGPU-Sim PTX: cudaMallocPitch (width = 400)
GPGPU-Sim: synchronize waiting for inactive GPU simulation
GPGPU-Sim API: Stream Manager State
GPGPU-Sim: detected inactive GPU simulation thread

Copy u1 to device: 294.821991 (ms) 

 dimGrid  = 4 25 1 
 dimBlock = 32 4 1 
GPGPU-Sim: synchronize waiting for inactive GPU simulation
GPGPU-Sim API: Stream Manager State
GPGPU-Sim: detected inactive GPU simulation thread

GPGPU-Sim PTX: cudaLaunch for 0x0x403bc0 (mode=performance simulation) on stream 0
GPGPU-Sim PTX: pushing kernel '_Z13GPU_laplace3diiiiPfS_' to stream 0, gridDim= (4,25,1) blockDim = (32,4,1) 
kernel '_Z13GPU_laplace3diiiiPfS_' transfer to GPU hardware scheduler
GPGPU-Sim uArch: Shader 1 bind to kernel 1 '_Z13GPU_laplace3diiiiPfS_'
GPGPU-Sim uArch: CTA/core = 8, limited by: cta_limit
GPGPU-Sim uArch: core:  1, cta: 0 initialized @(1,0)
GPGPU-Sim uArch: Shader 2 bind to kernel 1 '_Z13GPU_laplace3diiiiPfS_'
GPGPU-Sim uArch: core:  2, cta: 0 initialized @(1,0)
GPGPU-Sim uArch: Shader 3 bind to kernel 1 '_Z13GPU_laplace3diiiiPfS_'
GPGPU-Sim uArch: core:  3, cta: 0 initialized @(1,0)
GPGPU-Sim uArch: Shader 4 bind to kernel 1 '_Z13GPU_laplace3diiiiPfS_'
GPGPU-Sim uArch: core:  4, cta: 0 initialized @(1,0)
GPGPU-Sim uArch: Shader 5 bind to kernel 1 '_Z13GPU_laplace3diiiiPfS_'
GPGPU-Sim uArch: core:  5, cta: 0 initialized @(1,0)
GPGPU-Sim uArch: Shader 6 bind to kernel 1 '_Z13GPU_laplace3diiiiPfS_'
GPGPU-Sim uArch: core:  6, cta: 0 initialized @(1,0)
GPGPU-Sim uArch: Shader 7 bind to kernel 1 '_Z13GPU_laplace3diiiiPfS_'
GPGPU-Sim uArch: core:  7, cta: 0 initialized @(1,0)
GPGPU-Sim uArch: Shader 8 bind to kernel 1 '_Z13GPU_laplace3diiiiPfS_'
GPGPU-Sim uArch: core:  8, cta: 0 initialized @(1,0)
GPGPU-Sim uArch: Shader 9 bind to kernel 1 '_Z13GPU_laplace3diiiiPfS_'
GPGPU-Sim uArch: core:  9, cta: 0 initialized @(1,0)
GPGPU-Sim uArch: Shader 10 bind to kernel 1 '_Z13GPU_laplace3diiiiPfS_'
GPGPU-Sim uArch: core: 10, cta: 0 initialized @(1,0)
GPGPU-Sim uArch: Shader 11 bind to kernel 1 '_Z13GPU_laplace3diiiiPfS_'
GPGPU-Sim uArch: core: 11, cta: 0 initialized @(1,0)
GPGPU-Sim uArch: Shader 12 bind to kernel 1 '_Z13GPU_laplace3diiiiPfS_'
GPGPU-Sim uArch: core: 12, cta: 0 initialized @(1,0)
GPGPU-Sim uArch: Shader 13 bind to kernel 1 '_Z13GPU_laplace3diiiiPfS_'
GPGPU-Sim uArch: core: 13, cta: 0 initialized @(1,0)
GPGPU-Sim uArch: Shader 14 bind to kernel 1 '_Z13GPU_laplace3diiiiPfS_'
GPGPU-Sim uArch: core: 14, cta: 0 initialized @(1,0)
GPGPU-Sim uArch: Shader 0 bind to kernel 1 '_Z13GPU_laplace3diiiiPfS_'
GPGPU-Sim uArch: core:  0, cta: 0 initialized @(1,0)
GPGPU-Sim uArch: core:  1, cta: 1 initialized @(2,0)
GPGPU-Sim uArch: core:  2, cta: 1 initialized @(2,0)
GPGPU-Sim uArch: core:  3, cta: 1 initialized @(2,0)
GPGPU-Sim uArch: core:  4, cta: 1 initialized @(2,0)
GPGPU-Sim uArch: core:  5, cta: 1 initialized @(2,0)
GPGPU-Sim uArch: core:  6, cta: 1 initialized @(2,0)
GPGPU-Sim uArch: core:  7, cta: 1 initialized @(2,0)
GPGPU-Sim uArch: core:  8, cta: 1 initialized @(2,0)
GPGPU-Sim uArch: core:  9, cta: 1 initialized @(2,0)
GPGPU-Sim uArch: core: 10, cta: 1 initialized @(2,0)
GPGPU-Sim uArch: core: 11, cta: 1 initialized @(2,0)
GPGPU-Sim uArch: core: 12, cta: 1 initialized @(2,0)
GPGPU-Sim uArch: core: 13, cta: 1 initialized @(2,0)
GPGPU-Sim uArch: core: 14, cta: 1 initialized @(2,0)
GPGPU-Sim uArch: core:  0, cta: 1 initialized @(2,0)
GPGPU-Sim uArch: core:  1, cta: 2 initialized @(3,0)
GPGPU-Sim uArch: core:  2, cta: 2 initialized @(3,0)
GPGPU-Sim uArch: core:  3, cta: 2 initialized @(3,0)
GPGPU-Sim uArch: core:  4, cta: 2 initialized @(3,0)
GPGPU-Sim uArch: core:  5, cta: 2 initialized @(3,0)
GPGPU-Sim uArch: core:  6, cta: 2 initialized @(3,0)
GPGPU-Sim uArch: core:  7, cta: 2 initialized @(3,0)
GPGPU-Sim uArch: core:  8, cta: 2 initialized @(3,0)
GPGPU-Sim uArch: core:  9, cta: 2 initialized @(3,0)
GPGPU-Sim uArch: core: 10, cta: 2 initialized @(3,0)
GPGPU-Sim uArch: core: 11, cta: 2 initialized @(3,0)
GPGPU-Sim uArch: core: 12, cta: 2 initialized @(3,0)
GPGPU-Sim uArch: core: 13, cta: 2 initialized @(3,0)
GPGPU-Sim uArch: core: 14, cta: 2 initialized @(3,0)
GPGPU-Sim uArch: core:  0, cta: 2 initialized @(3,0)
GPGPU-Sim uArch: core:  1, cta: 3 initialized @(4,0)
GPGPU-Sim uArch: core:  2, cta: 3 initialized @(4,0)
GPGPU-Sim uArch: core:  3, cta: 3 initialized @(4,0)
GPGPU-Sim uArch: core:  4, cta: 3 initialized @(4,0)
GPGPU-Sim uArch: core:  5, cta: 3 initialized @(4,0)
GPGPU-Sim uArch: core:  6, cta: 3 initialized @(4,0)
GPGPU-Sim uArch: core:  7, cta: 3 initialized @(4,0)
GPGPU-Sim uArch: core:  8, cta: 3 initialized @(4,0)
GPGPU-Sim uArch: core:  9, cta: 3 initialized @(4,0)
GPGPU-Sim uArch: core: 10, cta: 3 initialized @(4,0)
GPGPU-Sim uArch: core: 11, cta: 3 initialized @(4,0)
GPGPU-Sim uArch: core: 12, cta: 3 initialized @(4,0)
GPGPU-Sim uArch: core: 13, cta: 3 initialized @(4,0)
GPGPU-Sim uArch: core: 14, cta: 3 initialized @(4,0)
GPGPU-Sim uArch: core:  0, cta: 3 initialized @(4,0)
GPGPU-Sim uArch: core:  1, cta: 4 initialized @(5,0)
GPGPU-Sim uArch: core:  2, cta: 4 initialized @(5,0)
GPGPU-Sim uArch: core:  3, cta: 4 initialized @(5,0)
GPGPU-Sim uArch: core:  4, cta: 4 initialized @(5,0)
GPGPU-Sim uArch: core:  5, cta: 4 initialized @(5,0)
GPGPU-Sim uArch: core:  6, cta: 4 initialized @(5,0)
GPGPU-Sim uArch: core:  7, cta: 4 initialized @(5,0)
GPGPU-Sim uArch: core:  8, cta: 4 initialized @(5,0)
GPGPU-Sim uArch: core:  9, cta: 4 initialized @(5,0)
GPGPU-Sim uArch: core: 10, cta: 4 initialized @(5,0)
GPGPU-Sim uArch: core: 11, cta: 4 initialized @(5,0)
GPGPU-Sim uArch: core: 12, cta: 4 initialized @(5,0)
GPGPU-Sim uArch: core: 13, cta: 4 initialized @(5,0)
GPGPU-Sim uArch: core: 14, cta: 4 initialized @(5,0)
GPGPU-Sim uArch: core:  0, cta: 4 initialized @(5,0)
GPGPU-Sim uArch: core:  1, cta: 5 initialized @(6,0)
GPGPU-Sim uArch: core:  2, cta: 5 initialized @(6,0)
GPGPU-Sim uArch: core:  3, cta: 5 initialized @(6,0)
GPGPU-Sim uArch: core:  4, cta: 5 initialized @(6,0)
GPGPU-Sim uArch: core:  5, cta: 5 initialized @(6,0)
GPGPU-Sim uArch: core:  6, cta: 5 initialized @(6,0)
GPGPU-Sim uArch: core:  7, cta: 5 initialized @(6,0)
GPGPU-Sim uArch: core:  8, cta: 5 initialized @(6,0)
GPGPU-Sim uArch: core:  9, cta: 5 initialized @(6,0)
GPGPU-Sim uArch: core: 10, cta: 5 initialized @(6,0)
GPGPU-Sim uArch: core: 11, cta: 5 initialized @(6,0)
GPGPU-Sim uArch: core: 12, cta: 5 initialized @(6,0)
GPGPU-Sim uArch: core: 13, cta: 5 initialized @(6,0)
GPGPU-Sim uArch: core: 14, cta: 5 initialized @(6,0)
GPGPU-Sim uArch: core:  0, cta: 5 initialized @(6,0)
GPGPU-Sim uArch: core:  1, cta: 6 initialized @(7,0)
GPGPU-Sim uArch: core:  2, cta: 6 initialized @(7,0)
GPGPU-Sim uArch: core:  3, cta: 6 initialized @(7,0)
GPGPU-Sim uArch: core:  4, cta: 6 initialized @(7,0)
GPGPU-Sim uArch: core:  5, cta: 6 initialized @(7,0)
GPGPU-Sim uArch: core:  6, cta: 6 initialized @(7,0)
GPGPU-Sim uArch: core:  7, cta: 6 initialized @(7,0)
GPGPU-Sim uArch: core:  8, cta: 6 initialized @(7,0)
GPGPU-Sim uArch: core:  9, cta: 6 initialized @(7,0)
GPGPU-Sim uArch: core: 10, cta: 6 initialized @(7,0)
GPGPU-Sim uArch: cycles simulated: 500  inst.: 67648 (ipc=135.3) sim_rate=33824 (inst/sec) elapsed = 0:0:00:02 / Tue May 12 11:17:17 2015
GPGPU-Sim PTX: 100000 instructions simulated : ctaid=(0,16,0) tid=(31,0,0)
GPGPU-Sim PTX: 200000 instructions simulated : ctaid=(3,13,0) tid=(3,2,0)
GPGPU-Sim uArch: cycles simulated: 1000  inst.: 256872 (ipc=256.9) sim_rate=85624 (inst/sec) elapsed = 0:0:00:03 / Tue May 12 11:17:18 2015
GPGPU-Sim PTX: 300000 instructions simulated : ctaid=(3,7,0) tid=(31,1,0)
GPGPU-Sim PTX: 400000 instructions simulated : ctaid=(0,22,0) tid=(7,3,0)
GPGPU-Sim uArch: cycles simulated: 1500  inst.: 444940 (ipc=296.6) sim_rate=88988 (inst/sec) elapsed = 0:0:00:05 / Tue May 12 11:17:20 2015
GPGPU-Sim PTX: 500000 instructions simulated : ctaid=(0,3,0) tid=(19,1,0)
GPGPU-Sim PTX: 600000 instructions simulated : ctaid=(2,10,0) tid=(0,2,0)
GPGPU-Sim uArch: cycles simulated: 2000  inst.: 639002 (ipc=319.5) sim_rate=91286 (inst/sec) elapsed = 0:0:00:07 / Tue May 12 11:17:22 2015
GPGPU-Sim PTX: 700000 instructions simulated : ctaid=(2,8,0) tid=(3,1,0)
GPGPU-Sim PTX: 800000 instructions simulated : ctaid=(0,0,0) tid=(1,2,0)
GPGPU-Sim uArch: cycles simulated: 2500  inst.: 836474 (ipc=334.6) sim_rate=104559 (inst/sec) elapsed = 0:0:00:08 / Tue May 12 11:17:23 2015
GPGPU-Sim PTX: 900000 instructions simulated : ctaid=(1,16,0) tid=(19,1,0)
GPGPU-Sim PTX: 1000000 instructions simulated : ctaid=(0,13,0) tid=(9,2,0)
GPGPU-Sim uArch: cycles simulated: 3000  inst.: 1012696 (ipc=337.6) sim_rate=101269 (inst/sec) elapsed = 0:0:00:10 / Tue May 12 11:17:25 2015
GPGPU-Sim PTX: 1100000 instructions simulated : ctaid=(3,19,0) tid=(5,2,0)
GPGPU-Sim PTX: 1200000 instructions simulated : ctaid=(1,10,0) tid=(21,0,0)
GPGPU-Sim uArch: cycles simulated: 3500  inst.: 1168784 (ipc=333.9) sim_rate=97398 (inst/sec) elapsed = 0:0:00:12 / Tue May 12 11:17:27 2015
GPGPU-Sim PTX: 1300000 instructions simulated : ctaid=(0,5,0) tid=(21,0,0)
GPGPU-Sim PTX: 1400000 instructions simulated : ctaid=(2,24,0) tid=(26,0,0)
GPGPU-Sim uArch: cycles simulated: 4000  inst.: 1323703 (ipc=330.9) sim_rate=101823 (inst/sec) elapsed = 0:0:00:13 / Tue May 12 11:17:28 2015
GPGPU-Sim PTX: 1500000 instructions simulated : ctaid=(0,4,0) tid=(22,2,0)
GPGPU-Sim uArch: cycles simulated: 4500  inst.: 1457261 (ipc=323.8) sim_rate=97150 (inst/sec) elapsed = 0:0:00:15 / Tue May 12 11:17:30 2015
GPGPU-Sim PTX: 1600000 instructions simulated : ctaid=(2,0,0) tid=(18,1,0)
GPGPU-Sim PTX: 1700000 instructions simulated : ctaid=(1,8,0) tid=(14,1,0)
GPGPU-Sim uArch: cycles simulated: 5000  inst.: 1639018 (ipc=327.8) sim_rate=102438 (inst/sec) elapsed = 0:0:00:16 / Tue May 12 11:17:31 2015
GPGPU-Sim PTX: 1800000 instructions simulated : ctaid=(1,18,0) tid=(8,1,0)
GPGPU-Sim uArch: cycles simulated: 5500  inst.: 1755165 (ipc=319.1) sim_rate=97509 (inst/sec) elapsed = 0:0:00:18 / Tue May 12 11:17:33 2015
GPGPU-Sim PTX: 1900000 instructions simulated : ctaid=(2,6,0) tid=(19,1,0)
GPGPU-Sim PTX: 2000000 instructions simulated : ctaid=(2,0,0) tid=(10,2,0)
GPGPU-Sim uArch: cycles simulated: 6000  inst.: 1898459 (ipc=316.4) sim_rate=94922 (inst/sec) elapsed = 0:0:00:20 / Tue May 12 11:17:35 2015
GPGPU-Sim PTX: 2100000 instructions simulated : ctaid=(2,0,0) tid=(30,2,0)
GPGPU-Sim PTX: 2200000 instructions simulated : ctaid=(0,9,0) tid=(1,0,0)
GPGPU-Sim uArch: cycles simulated: 6500  inst.: 2064459 (ipc=317.6) sim_rate=98307 (inst/sec) elapsed = 0:0:00:21 / Tue May 12 11:17:36 2015
GPGPU-Sim PTX: 2300000 instructions simulated : ctaid=(0,11,0) tid=(16,3,0)
GPGPU-Sim PTX: 2400000 instructions simulated : ctaid=(1,8,0) tid=(0,2,0)
GPGPU-Sim uArch: cycles simulated: 7000  inst.: 2220339 (ipc=317.2) sim_rate=96536 (inst/sec) elapsed = 0:0:00:23 / Tue May 12 11:17:38 2015
GPGPU-Sim PTX: 2500000 instructions simulated : ctaid=(2,10,0) tid=(26,1,0)
GPGPU-Sim PTX: 2600000 instructions simulated : ctaid=(0,5,0) tid=(2,2,0)
GPGPU-Sim uArch: cycles simulated: 7500  inst.: 2383555 (ipc=317.8) sim_rate=95342 (inst/sec) elapsed = 0:0:00:25 / Tue May 12 11:17:40 2015
GPGPU-Sim PTX: 2700000 instructions simulated : ctaid=(2,8,0) tid=(23,0,0)
GPGPU-Sim uArch: cycles simulated: 8000  inst.: 2541077 (ipc=317.6) sim_rate=97733 (inst/sec) elapsed = 0:0:00:26 / Tue May 12 11:17:41 2015
GPGPU-Sim PTX: 2800000 instructions simulated : ctaid=(0,8,0) tid=(12,1,0)
GPGPU-Sim PTX: 2900000 instructions simulated : ctaid=(0,2,0) tid=(21,3,0)
GPGPU-Sim uArch: cycles simulated: 8500  inst.: 2707133 (ipc=318.5) sim_rate=96683 (inst/sec) elapsed = 0:0:00:28 / Tue May 12 11:17:43 2015
GPGPU-Sim PTX: 3000000 instructions simulated : ctaid=(0,7,0) tid=(31,3,0)
GPGPU-Sim PTX: 3100000 instructions simulated : ctaid=(1,16,0) tid=(28,0,0)
GPGPU-Sim uArch: cycles simulated: 9000  inst.: 2868309 (ipc=318.7) sim_rate=98907 (inst/sec) elapsed = 0:0:00:29 / Tue May 12 11:17:44 2015
GPGPU-Sim PTX: 3200000 instructions simulated : ctaid=(3,5,0) tid=(3,1,0)
GPGPU-Sim PTX: 3300000 instructions simulated : ctaid=(0,9,0) tid=(11,1,0)
GPGPU-Sim uArch: cycles simulated: 9500  inst.: 3025582 (ipc=318.5) sim_rate=97599 (inst/sec) elapsed = 0:0:00:31 / Tue May 12 11:17:46 2015
GPGPU-Sim PTX: 3400000 instructions simulated : ctaid=(1,6,0) tid=(30,1,0)
GPGPU-Sim PTX: 3500000 instructions simulated : ctaid=(2,10,0) tid=(28,1,0)
GPGPU-Sim uArch: cycles simulated: 10000  inst.: 3182344 (ipc=318.2) sim_rate=96434 (inst/sec) elapsed = 0:0:00:33 / Tue May 12 11:17:48 2015
GPGPU-Sim PTX: 3600000 instructions simulated : ctaid=(2,0,0) tid=(26,2,0)
GPGPU-Sim uArch: cycles simulated: 10500  inst.: 3354616 (ipc=319.5) sim_rate=98665 (inst/sec) elapsed = 0:0:00:34 / Tue May 12 11:17:49 2015
GPGPU-Sim PTX: 3700000 instructions simulated : ctaid=(3,12,0) tid=(31,0,0)
GPGPU-Sim PTX: 3800000 instructions simulated : ctaid=(0,13,0) tid=(8,0,0)
GPGPU-Sim uArch: cycles simulated: 11000  inst.: 3513163 (ipc=319.4) sim_rate=97587 (inst/sec) elapsed = 0:0:00:36 / Tue May 12 11:17:51 2015
GPGPU-Sim PTX: 3900000 instructions simulated : ctaid=(2,1,0) tid=(28,0,0)
GPGPU-Sim PTX: 4000000 instructions simulated : ctaid=(0,1,0) tid=(9,2,0)
GPGPU-Sim uArch: cycles simulated: 11500  inst.: 3682574 (ipc=320.2) sim_rate=96909 (inst/sec) elapsed = 0:0:00:38 / Tue May 12 11:17:53 2015
GPGPU-Sim PTX: 4100000 instructions simulated : ctaid=(0,2,0) tid=(0,2,0)
GPGPU-Sim PTX: 4200000 instructions simulated : ctaid=(0,6,0) tid=(9,2,0)
GPGPU-Sim uArch: cycles simulated: 12000  inst.: 3836455 (ipc=319.7) sim_rate=95911 (inst/sec) elapsed = 0:0:00:40 / Tue May 12 11:17:55 2015
GPGPU-Sim PTX: 4300000 instructions simulated : ctaid=(3,21,0) tid=(21,2,0)
GPGPU-Sim PTX: 4400000 instructions simulated : ctaid=(1,4,0) tid=(18,0,0)
GPGPU-Sim uArch: cycles simulated: 12500  inst.: 3991811 (ipc=319.3) sim_rate=97361 (inst/sec) elapsed = 0:0:00:41 / Tue May 12 11:17:56 2015
GPGPU-Sim PTX: 4500000 instructions simulated : ctaid=(3,3,0) tid=(23,3,0)
GPGPU-Sim uArch: cycles simulated: 13000  inst.: 4147690 (ipc=319.1) sim_rate=96457 (inst/sec) elapsed = 0:0:00:43 / Tue May 12 11:17:58 2015
GPGPU-Sim PTX: 4600000 instructions simulated : ctaid=(2,8,0) tid=(8,2,0)
GPGPU-Sim PTX: 4700000 instructions simulated : ctaid=(0,7,0) tid=(19,1,0)
GPGPU-Sim uArch: cycles simulated: 13500  inst.: 4311823 (ipc=319.4) sim_rate=95818 (inst/sec) elapsed = 0:0:00:45 / Tue May 12 11:18:00 2015
GPGPU-Sim PTX: 4800000 instructions simulated : ctaid=(1,5,0) tid=(14,1,0)
GPGPU-Sim PTX: 4900000 instructions simulated : ctaid=(0,8,0) tid=(11,1,0)
GPGPU-Sim uArch: cycles simulated: 14000  inst.: 4477099 (ipc=319.8) sim_rate=97328 (inst/sec) elapsed = 0:0:00:46 / Tue May 12 11:18:01 2015
GPGPU-Sim PTX: 5000000 instructions simulated : ctaid=(2,13,0) tid=(23,3,0)
GPGPU-Sim PTX: 5100000 instructions simulated : ctaid=(1,4,0) tid=(20,2,0)
GPGPU-Sim uArch: cycles simulated: 14500  inst.: 4627376 (ipc=319.1) sim_rate=96403 (inst/sec) elapsed = 0:0:00:48 / Tue May 12 11:18:03 2015
GPGPU-Sim PTX: 5200000 instructions simulated : ctaid=(0,8,0) tid=(8,2,0)
GPGPU-Sim PTX: 5300000 instructions simulated : ctaid=(0,5,0) tid=(15,0,0)
GPGPU-Sim uArch: cycles simulated: 15000  inst.: 4791376 (ipc=319.4) sim_rate=95827 (inst/sec) elapsed = 0:0:00:50 / Tue May 12 11:18:05 2015
GPGPU-Sim PTX: 5400000 instructions simulated : ctaid=(0,10,0) tid=(3,3,0)
GPGPU-Sim uArch: cycles simulated: 15500  inst.: 4948908 (ipc=319.3) sim_rate=97037 (inst/sec) elapsed = 0:0:00:51 / Tue May 12 11:18:06 2015
GPGPU-Sim PTX: 5500000 instructions simulated : ctaid=(2,2,0) tid=(15,2,0)
GPGPU-Sim PTX: 5600000 instructions simulated : ctaid=(1,2,0) tid=(11,3,0)
GPGPU-Sim uArch: cycles simulated: 16000  inst.: 5111901 (ipc=319.5) sim_rate=96450 (inst/sec) elapsed = 0:0:00:53 / Tue May 12 11:18:08 2015
GPGPU-Sim PTX: 5700000 instructions simulated : ctaid=(1,10,0) tid=(25,2,0)
GPGPU-Sim PTX: 5800000 instructions simulated : ctaid=(0,7,0) tid=(5,1,0)
GPGPU-Sim uArch: cycles simulated: 16500  inst.: 5276175 (ipc=319.8) sim_rate=97706 (inst/sec) elapsed = 0:0:00:54 / Tue May 12 11:18:09 2015
GPGPU-Sim PTX: 5900000 instructions simulated : ctaid=(0,1,0) tid=(17,0,0)
GPGPU-Sim PTX: 6000000 instructions simulated : ctaid=(0,4,0) tid=(19,0,0)
GPGPU-Sim uArch: cycles simulated: 17000  inst.: 5438412 (ipc=319.9) sim_rate=97114 (inst/sec) elapsed = 0:0:00:56 / Tue May 12 11:18:11 2015
GPGPU-Sim PTX: 6100000 instructions simulated : ctaid=(1,8,0) tid=(22,0,0)
GPGPU-Sim PTX: 6200000 instructions simulated : ctaid=(1,8,0) tid=(22,1,0)
GPGPU-Sim uArch: cycles simulated: 17500  inst.: 5602332 (ipc=320.1) sim_rate=96591 (inst/sec) elapsed = 0:0:00:58 / Tue May 12 11:18:13 2015
GPGPU-Sim PTX: 6300000 instructions simulated : ctaid=(1,7,0) tid=(20,0,0)
GPGPU-Sim PTX: 6400000 instructions simulated : ctaid=(2,8,0) tid=(0,3,0)
GPGPU-Sim uArch: cycles simulated: 18000  inst.: 5762573 (ipc=320.1) sim_rate=97670 (inst/sec) elapsed = 0:0:00:59 / Tue May 12 11:18:14 2015
GPGPU-Sim PTX: 6500000 instructions simulated : ctaid=(0,4,0) tid=(24,1,0)
GPGPU-Sim uArch: cycles simulated: 18500  inst.: 5923708 (ipc=320.2) sim_rate=97109 (inst/sec) elapsed = 0:0:01:01 / Tue May 12 11:18:16 2015
GPGPU-Sim PTX: 6600000 instructions simulated : ctaid=(0,1,0) tid=(19,3,0)
GPGPU-Sim PTX: 6700000 instructions simulated : ctaid=(2,5,0) tid=(3,0,0)
GPGPU-Sim uArch: cycles simulated: 19000  inst.: 6087140 (ipc=320.4) sim_rate=96621 (inst/sec) elapsed = 0:0:01:03 / Tue May 12 11:18:18 2015
GPGPU-Sim PTX: 6800000 instructions simulated : ctaid=(2,2,0) tid=(13,0,0)
GPGPU-Sim PTX: 6900000 instructions simulated : ctaid=(1,12,0) tid=(1,2,0)
GPGPU-Sim uArch: cycles simulated: 19500  inst.: 6248822 (ipc=320.5) sim_rate=97637 (inst/sec) elapsed = 0:0:01:04 / Tue May 12 11:18:19 2015
GPGPU-Sim PTX: 7000000 instructions simulated : ctaid=(0,7,0) tid=(23,0,0)
GPGPU-Sim PTX: 7100000 instructions simulated : ctaid=(3,9,0) tid=(19,0,0)
GPGPU-Sim uArch: cycles simulated: 20000  inst.: 6406801 (ipc=320.3) sim_rate=97072 (inst/sec) elapsed = 0:0:01:06 / Tue May 12 11:18:21 2015
GPGPU-Sim PTX: 7200000 instructions simulated : ctaid=(0,12,0) tid=(1,2,0)
GPGPU-Sim PTX: 7300000 instructions simulated : ctaid=(1,10,0) tid=(22,0,0)
GPGPU-Sim uArch: cycles simulated: 20500  inst.: 6570581 (ipc=320.5) sim_rate=98068 (inst/sec) elapsed = 0:0:01:07 / Tue May 12 11:18:22 2015
GPGPU-Sim PTX: 7400000 instructions simulated : ctaid=(0,3,0) tid=(24,0,0)
GPGPU-Sim uArch: cycles simulated: 21000  inst.: 6734064 (ipc=320.7) sim_rate=97595 (inst/sec) elapsed = 0:0:01:09 / Tue May 12 11:18:24 2015
GPGPU-Sim PTX: 7500000 instructions simulated : ctaid=(1,6,0) tid=(17,3,0)
GPGPU-Sim PTX: 7600000 instructions simulated : ctaid=(0,4,0) tid=(12,2,0)
GPGPU-Sim uArch: cycles simulated: 21500  inst.: 6889609 (ipc=320.4) sim_rate=97036 (inst/sec) elapsed = 0:0:01:11 / Tue May 12 11:18:26 2015
GPGPU-Sim PTX: 7700000 instructions simulated : ctaid=(0,5,0) tid=(25,0,0)
GPGPU-Sim PTX: 7800000 instructions simulated : ctaid=(1,3,0) tid=(13,2,0)
GPGPU-Sim uArch: cycles simulated: 22000  inst.: 7058657 (ipc=320.8) sim_rate=98036 (inst/sec) elapsed = 0:0:01:12 / Tue May 12 11:18:27 2015
GPGPU-Sim PTX: 7900000 instructions simulated : ctaid=(1,8,0) tid=(8,0,0)
GPGPU-Sim PTX: 8000000 instructions simulated : ctaid=(2,14,0) tid=(4,2,0)
GPGPU-Sim uArch: cycles simulated: 22500  inst.: 7214934 (ipc=320.7) sim_rate=97499 (inst/sec) elapsed = 0:0:01:14 / Tue May 12 11:18:29 2015
GPGPU-Sim PTX: 8100000 instructions simulated : ctaid=(1,8,0) tid=(14,0,0)
GPGPU-Sim PTX: 8200000 instructions simulated : ctaid=(0,1,0) tid=(22,1,0)
GPGPU-Sim uArch: cycles simulated: 23000  inst.: 7377675 (ipc=320.8) sim_rate=97074 (inst/sec) elapsed = 0:0:01:16 / Tue May 12 11:18:31 2015
GPGPU-Sim PTX: 8300000 instructions simulated : ctaid=(0,6,0) tid=(20,1,0)
GPGPU-Sim PTX: 8400000 instructions simulated : ctaid=(2,5,0) tid=(22,1,0)
GPGPU-Sim uArch: cycles simulated: 23500  inst.: 7537862 (ipc=320.8) sim_rate=97894 (inst/sec) elapsed = 0:0:01:17 / Tue May 12 11:18:32 2015
GPGPU-Sim PTX: 8500000 instructions simulated : ctaid=(0,3,0) tid=(16,0,0)
GPGPU-Sim uArch: cycles simulated: 24000  inst.: 7693752 (ipc=320.6) sim_rate=97389 (inst/sec) elapsed = 0:0:01:19 / Tue May 12 11:18:34 2015
GPGPU-Sim PTX: 8600000 instructions simulated : ctaid=(1,2,0) tid=(5,2,0)
GPGPU-Sim PTX: 8700000 instructions simulated : ctaid=(3,7,0) tid=(1,2,0)
GPGPU-Sim uArch: cycles simulated: 24500  inst.: 7852776 (ipc=320.5) sim_rate=96947 (inst/sec) elapsed = 0:0:01:21 / Tue May 12 11:18:36 2015
GPGPU-Sim PTX: 8800000 instructions simulated : ctaid=(2,15,0) tid=(1,1,0)
GPGPU-Sim PTX: 8900000 instructions simulated : ctaid=(0,14,0) tid=(28,3,0)
GPGPU-Sim uArch: cycles simulated: 25000  inst.: 8006115 (ipc=320.2) sim_rate=97635 (inst/sec) elapsed = 0:0:01:22 / Tue May 12 11:18:37 2015
GPGPU-Sim PTX: 9000000 instructions simulated : ctaid=(0,3,0) tid=(11,1,0)
GPGPU-Sim PTX: 9100000 instructions simulated : ctaid=(0,4,0) tid=(31,2,0)
GPGPU-Sim uArch: cycles simulated: 25500  inst.: 8177323 (ipc=320.7) sim_rate=97349 (inst/sec) elapsed = 0:0:01:24 / Tue May 12 11:18:39 2015
GPGPU-Sim PTX: 9200000 instructions simulated : ctaid=(1,5,0) tid=(2,0,0)
GPGPU-Sim PTX: 9300000 instructions simulated : ctaid=(1,12,0) tid=(27,1,0)
GPGPU-Sim uArch: cycles simulated: 26000  inst.: 8335992 (ipc=320.6) sim_rate=98070 (inst/sec) elapsed = 0:0:01:25 / Tue May 12 11:18:40 2015
GPGPU-Sim PTX: 9400000 instructions simulated : ctaid=(0,5,0) tid=(31,1,0)
GPGPU-Sim uArch: cycles simulated: 26500  inst.: 8496651 (ipc=320.6) sim_rate=97662 (inst/sec) elapsed = 0:0:01:27 / Tue May 12 11:18:42 2015
GPGPU-Sim PTX: 9500000 instructions simulated : ctaid=(0,4,0) tid=(21,3,0)
GPGPU-Sim PTX: 9600000 instructions simulated : ctaid=(2,7,0) tid=(23,0,0)
GPGPU-Sim uArch: cycles simulated: 27000  inst.: 8659973 (ipc=320.7) sim_rate=97303 (inst/sec) elapsed = 0:0:01:29 / Tue May 12 11:18:44 2015
GPGPU-Sim PTX: 9700000 instructions simulated : ctaid=(1,0,0) tid=(12,1,0)
GPGPU-Sim PTX: 9800000 instructions simulated : ctaid=(1,5,0) tid=(20,0,0)
GPGPU-Sim uArch: cycles simulated: 27500  inst.: 8819541 (ipc=320.7) sim_rate=97994 (inst/sec) elapsed = 0:0:01:30 / Tue May 12 11:18:45 2015
GPGPU-Sim PTX: 9900000 instructions simulated : ctaid=(0,4,0) tid=(11,3,0)
GPGPU-Sim PTX: 10000000 instructions simulated : ctaid=(0,7,0) tid=(22,0,0)
GPGPU-Sim uArch: cycles simulated: 28000  inst.: 8976504 (ipc=320.6) sim_rate=97570 (inst/sec) elapsed = 0:0:01:32 / Tue May 12 11:18:47 2015
GPGPU-Sim PTX: 10100000 instructions simulated : ctaid=(1,12,0) tid=(26,3,0)
GPGPU-Sim PTX: 10200000 instructions simulated : ctaid=(0,17,0) tid=(24,2,0)
GPGPU-Sim uArch: cycles simulated: 28500  inst.: 9144377 (ipc=320.9) sim_rate=98326 (inst/sec) elapsed = 0:0:01:33 / Tue May 12 11:18:48 2015
GPGPU-Sim PTX: 10300000 instructions simulated : ctaid=(0,11,0) tid=(24,3,0)
GPGPU-Sim uArch: cycles simulated: 29000  inst.: 9300524 (ipc=320.7) sim_rate=97900 (inst/sec) elapsed = 0:0:01:35 / Tue May 12 11:18:50 2015
GPGPU-Sim PTX: 10400000 instructions simulated : ctaid=(1,18,0) tid=(30,1,0)
GPGPU-Sim PTX: 10500000 instructions simulated : ctaid=(2,8,0) tid=(30,2,0)
GPGPU-Sim uArch: cycles simulated: 29500  inst.: 9457508 (ipc=320.6) sim_rate=97500 (inst/sec) elapsed = 0:0:01:37 / Tue May 12 11:18:52 2015
GPGPU-Sim PTX: 10600000 instructions simulated : ctaid=(0,9,0) tid=(17,3,0)
GPGPU-Sim PTX: 10700000 instructions simulated : ctaid=(1,5,0) tid=(12,0,0)
GPGPU-Sim uArch: cycles simulated: 30000  inst.: 9618315 (ipc=320.6) sim_rate=98146 (inst/sec) elapsed = 0:0:01:38 / Tue May 12 11:18:53 2015
GPGPU-Sim PTX: 10800000 instructions simulated : ctaid=(2,2,0) tid=(11,2,0)
GPGPU-Sim PTX: 10900000 instructions simulated : ctaid=(1,5,0) tid=(24,0,0)
GPGPU-Sim uArch: cycles simulated: 30500  inst.: 9779738 (ipc=320.6) sim_rate=97797 (inst/sec) elapsed = 0:0:01:40 / Tue May 12 11:18:55 2015
GPGPU-Sim PTX: 11000000 instructions simulated : ctaid=(0,3,0) tid=(30,2,0)
GPGPU-Sim PTX: 11100000 instructions simulated : ctaid=(2,14,0) tid=(2,0,0)
GPGPU-Sim uArch: cycles simulated: 31000  inst.: 9944120 (ipc=320.8) sim_rate=97491 (inst/sec) elapsed = 0:0:01:42 / Tue May 12 11:18:57 2015
GPGPU-Sim PTX: 11200000 instructions simulated : ctaid=(2,5,0) tid=(6,2,0)
GPGPU-Sim uArch: cycles simulated: 31500  inst.: 10108055 (ipc=320.9) sim_rate=98136 (inst/sec) elapsed = 0:0:01:43 / Tue May 12 11:18:58 2015
GPGPU-Sim PTX: 11300000 instructions simulated : ctaid=(1,9,0) tid=(12,0,0)
GPGPU-Sim PTX: 11400000 instructions simulated : ctaid=(2,3,0) tid=(26,2,0)
GPGPU-Sim uArch: cycles simulated: 32000  inst.: 10267496 (ipc=320.9) sim_rate=97785 (inst/sec) elapsed = 0:0:01:45 / Tue May 12 11:19:00 2015
GPGPU-Sim PTX: 11500000 instructions simulated : ctaid=(3,1,0) tid=(1,1,0)
GPGPU-Sim PTX: 11600000 instructions simulated : ctaid=(3,5,0) tid=(0,0,0)
GPGPU-Sim uArch: cycles simulated: 32500  inst.: 10431474 (ipc=321.0) sim_rate=98410 (inst/sec) elapsed = 0:0:01:46 / Tue May 12 11:19:01 2015
GPGPU-Sim PTX: 11700000 instructions simulated : ctaid=(2,2,0) tid=(26,1,0)
GPGPU-Sim PTX: 11800000 instructions simulated : ctaid=(2,17,0) tid=(4,3,0)
GPGPU-Sim uArch: cycles simulated: 33000  inst.: 10595877 (ipc=321.1) sim_rate=98109 (inst/sec) elapsed = 0:0:01:48 / Tue May 12 11:19:03 2015
GPGPU-Sim PTX: 11900000 instructions simulated : ctaid=(0,3,0) tid=(1,0,0)
GPGPU-Sim PTX: 12000000 instructions simulated : ctaid=(2,3,0) tid=(3,0,0)
GPGPU-Sim uArch: cycles simulated: 33500  inst.: 10756513 (ipc=321.1) sim_rate=97786 (inst/sec) elapsed = 0:0:01:50 / Tue May 12 11:19:05 2015
GPGPU-Sim PTX: 12100000 instructions simulated : ctaid=(3,12,0) tid=(18,2,0)
GPGPU-Sim PTX: 12200000 instructions simulated : ctaid=(0,14,0) tid=(27,2,0)
GPGPU-Sim uArch: cycles simulated: 34000  inst.: 10915436 (ipc=321.0) sim_rate=98337 (inst/sec) elapsed = 0:0:01:51 / Tue May 12 11:19:06 2015
GPGPU-Sim PTX: 12300000 instructions simulated : ctaid=(0,1,0) tid=(22,0,0)
GPGPU-Sim uArch: cycles simulated: 34500  inst.: 11068264 (ipc=320.8) sim_rate=97949 (inst/sec) elapsed = 0:0:01:53 / Tue May 12 11:19:08 2015
GPGPU-Sim PTX: 12400000 instructions simulated : ctaid=(0,1,0) tid=(27,2,0)
GPGPU-Sim PTX: 12500000 instructions simulated : ctaid=(1,6,0) tid=(12,0,0)
GPGPU-Sim uArch: cycles simulated: 35000  inst.: 11232086 (ipc=320.9) sim_rate=98527 (inst/sec) elapsed = 0:0:01:54 / Tue May 12 11:19:09 2015
GPGPU-Sim PTX: 12600000 instructions simulated : ctaid=(1,16,0) tid=(22,1,0)
GPGPU-Sim PTX: 12700000 instructions simulated : ctaid=(0,2,0) tid=(16,0,0)
GPGPU-Sim uArch: cycles simulated: 35500  inst.: 11398100 (ipc=321.1) sim_rate=98259 (inst/sec) elapsed = 0:0:01:56 / Tue May 12 11:19:11 2015
GPGPU-Sim PTX: 12800000 instructions simulated : ctaid=(3,3,0) tid=(2,3,0)
GPGPU-Sim PTX: 12900000 instructions simulated : ctaid=(2,12,0) tid=(16,3,0)
GPGPU-Sim uArch: cycles simulated: 36000  inst.: 11558150 (ipc=321.1) sim_rate=97950 (inst/sec) elapsed = 0:0:01:58 / Tue May 12 11:19:13 2015
GPGPU-Sim PTX: 13000000 instructions simulated : ctaid=(2,7,0) tid=(15,2,0)
GPGPU-Sim PTX: 13100000 instructions simulated : ctaid=(2,11,0) tid=(21,2,0)
GPGPU-Sim uArch: cycles simulated: 36500  inst.: 11715823 (ipc=321.0) sim_rate=98452 (inst/sec) elapsed = 0:0:01:59 / Tue May 12 11:19:14 2015
GPGPU-Sim PTX: 13200000 instructions simulated : ctaid=(2,8,0) tid=(14,1,0)
GPGPU-Sim uArch: cycles simulated: 37000  inst.: 11876984 (ipc=321.0) sim_rate=98156 (inst/sec) elapsed = 0:0:02:01 / Tue May 12 11:19:16 2015
GPGPU-Sim PTX: 13300000 instructions simulated : ctaid=(2,2,0) tid=(29,3,0)
GPGPU-Sim PTX: 13400000 instructions simulated : ctaid=(1,0,0) tid=(31,3,0)
GPGPU-Sim uArch: cycles simulated: 37500  inst.: 12038952 (ipc=321.0) sim_rate=98679 (inst/sec) elapsed = 0:0:02:02 / Tue May 12 11:19:17 2015
GPGPU-Sim PTX: 13500000 instructions simulated : ctaid=(0,6,0) tid=(22,0,0)
GPGPU-Sim PTX: 13600000 instructions simulated : ctaid=(2,6,0) tid=(10,1,0)
GPGPU-Sim uArch: cycles simulated: 38000  inst.: 12205374 (ipc=321.2) sim_rate=98430 (inst/sec) elapsed = 0:0:02:04 / Tue May 12 11:19:19 2015
GPGPU-Sim PTX: 13700000 instructions simulated : ctaid=(2,5,0) tid=(16,3,0)
GPGPU-Sim PTX: 13800000 instructions simulated : ctaid=(0,5,0) tid=(4,2,0)
GPGPU-Sim uArch: cycles simulated: 38500  inst.: 12366218 (ipc=321.2) sim_rate=98144 (inst/sec) elapsed = 0:0:02:06 / Tue May 12 11:19:21 2015
GPGPU-Sim PTX: 13900000 instructions simulated : ctaid=(2,0,0) tid=(13,0,0)
GPGPU-Sim PTX: 14000000 instructions simulated : ctaid=(2,1,0) tid=(21,3,0)
GPGPU-Sim uArch: cycles simulated: 39000  inst.: 12527151 (ipc=321.2) sim_rate=98638 (inst/sec) elapsed = 0:0:02:07 / Tue May 12 11:19:22 2015
GPGPU-Sim PTX: 14100000 instructions simulated : ctaid=(2,15,0) tid=(15,1,0)
GPGPU-Sim uArch: cycles simulated: 39500  inst.: 12684890 (ipc=321.1) sim_rate=98332 (inst/sec) elapsed = 0:0:02:09 / Tue May 12 11:19:24 2015
GPGPU-Sim PTX: 14200000 instructions simulated : ctaid=(1,0,0) tid=(16,0,0)
GPGPU-Sim PTX: 14300000 instructions simulated : ctaid=(1,3,0) tid=(19,1,0)
GPGPU-Sim uArch: cycles simulated: 40000  inst.: 12846118 (ipc=321.2) sim_rate=98816 (inst/sec) elapsed = 0:0:02:10 / Tue May 12 11:19:25 2015
GPGPU-Sim PTX: 14400000 instructions simulated : ctaid=(0,8,0) tid=(14,1,0)
GPGPU-Sim PTX: 14500000 instructions simulated : ctaid=(1,5,0) tid=(17,0,0)
GPGPU-Sim uArch: cycles simulated: 40500  inst.: 13005753 (ipc=321.1) sim_rate=98528 (inst/sec) elapsed = 0:0:02:12 / Tue May 12 11:19:27 2015
GPGPU-Sim PTX: 14600000 instructions simulated : ctaid=(1,2,0) tid=(19,0,0)
GPGPU-Sim PTX: 14700000 instructions simulated : ctaid=(2,0,0) tid=(24,0,0)
GPGPU-Sim uArch: cycles simulated: 41000  inst.: 13175560 (ipc=321.4) sim_rate=98325 (inst/sec) elapsed = 0:0:02:14 / Tue May 12 11:19:29 2015
GPGPU-Sim PTX: 14800000 instructions simulated : ctaid=(1,6,0) tid=(4,2,0)
GPGPU-Sim PTX: 14900000 instructions simulated : ctaid=(0,1,0) tid=(7,3,0)
GPGPU-Sim uArch: cycles simulated: 41500  inst.: 13332800 (ipc=321.3) sim_rate=98761 (inst/sec) elapsed = 0:0:02:15 / Tue May 12 11:19:30 2015
GPGPU-Sim PTX: 15000000 instructions simulated : ctaid=(0,0,0) tid=(22,2,0)
GPGPU-Sim uArch: cycles simulated: 42000  inst.: 13487843 (ipc=321.1) sim_rate=98451 (inst/sec) elapsed = 0:0:02:17 / Tue May 12 11:19:32 2015
GPGPU-Sim PTX: 15100000 instructions simulated : ctaid=(1,17,0) tid=(16,1,0)
GPGPU-Sim PTX: 15200000 instructions simulated : ctaid=(0,7,0) tid=(6,3,0)
GPGPU-Sim uArch: cycles simulated: 42500  inst.: 13651738 (ipc=321.2) sim_rate=98925 (inst/sec) elapsed = 0:0:02:18 / Tue May 12 11:19:33 2015
GPGPU-Sim PTX: 15300000 instructions simulated : ctaid=(2,9,0) tid=(20,0,0)
GPGPU-Sim PTX: 15400000 instructions simulated : ctaid=(2,6,0) tid=(25,1,0)
GPGPU-Sim uArch: cycles simulated: 43000  inst.: 13815107 (ipc=321.3) sim_rate=98679 (inst/sec) elapsed = 0:0:02:20 / Tue May 12 11:19:35 2015
GPGPU-Sim PTX: 15500000 instructions simulated : ctaid=(0,0,0) tid=(25,1,0)
GPGPU-Sim PTX: 15600000 instructions simulated : ctaid=(1,7,0) tid=(24,3,0)
GPGPU-Sim uArch: cycles simulated: 43500  inst.: 13976023 (ipc=321.3) sim_rate=98422 (inst/sec) elapsed = 0:0:02:22 / Tue May 12 11:19:37 2015
GPGPU-Sim PTX: 15700000 instructions simulated : ctaid=(0,14,0) tid=(3,1,0)
GPGPU-Sim PTX: 15800000 instructions simulated : ctaid=(2,15,0) tid=(21,0,0)
GPGPU-Sim uArch: cycles simulated: 44000  inst.: 14134830 (ipc=321.2) sim_rate=98844 (inst/sec) elapsed = 0:0:02:23 / Tue May 12 11:19:38 2015
GPGPU-Sim PTX: 15900000 instructions simulated : ctaid=(1,10,0) tid=(15,3,0)
GPGPU-Sim PTX: 16000000 instructions simulated : ctaid=(1,8,0) tid=(13,0,0)
GPGPU-Sim uArch: cycles simulated: 44500  inst.: 14296629 (ipc=321.3) sim_rate=98597 (inst/sec) elapsed = 0:0:02:25 / Tue May 12 11:19:40 2015
GPGPU-Sim PTX: 16100000 instructions simulated : ctaid=(0,4,0) tid=(5,1,0)
GPGPU-Sim uArch: cycles simulated: 45000  inst.: 14453541 (ipc=321.2) sim_rate=98996 (inst/sec) elapsed = 0:0:02:26 / Tue May 12 11:19:41 2015
GPGPU-Sim PTX: 16200000 instructions simulated : ctaid=(1,6,0) tid=(11,3,0)
GPGPU-Sim PTX: 16300000 instructions simulated : ctaid=(2,0,0) tid=(28,2,0)
GPGPU-Sim uArch: cycles simulated: 45500  inst.: 14617406 (ipc=321.3) sim_rate=98766 (inst/sec) elapsed = 0:0:02:28 / Tue May 12 11:19:43 2015
GPGPU-Sim PTX: 16400000 instructions simulated : ctaid=(2,3,0) tid=(1,0,0)
GPGPU-Sim PTX: 16500000 instructions simulated : ctaid=(1,0,0) tid=(16,1,0)
GPGPU-Sim uArch: cycles simulated: 46000  inst.: 14781368 (ipc=321.3) sim_rate=98542 (inst/sec) elapsed = 0:0:02:30 / Tue May 12 11:19:45 2015
GPGPU-Sim PTX: 16600000 instructions simulated : ctaid=(0,8,0) tid=(29,2,0)
GPGPU-Sim PTX: 16700000 instructions simulated : ctaid=(1,2,0) tid=(18,3,0)
GPGPU-Sim uArch: cycles simulated: 46500  inst.: 14937192 (ipc=321.2) sim_rate=98921 (inst/sec) elapsed = 0:0:02:31 / Tue May 12 11:19:46 2015
GPGPU-Sim PTX: 16800000 instructions simulated : ctaid=(0,4,0) tid=(18,2,0)
GPGPU-Sim PTX: 16900000 instructions simulated : ctaid=(2,17,0) tid=(2,0,0)
GPGPU-Sim uArch: cycles simulated: 47000  inst.: 15102261 (ipc=321.3) sim_rate=98707 (inst/sec) elapsed = 0:0:02:33 / Tue May 12 11:19:48 2015
GPGPU-Sim PTX: 17000000 instructions simulated : ctaid=(1,20,0) tid=(0,0,0)
GPGPU-Sim uArch: cycles simulated: 47500  inst.: 15257757 (ipc=321.2) sim_rate=98437 (inst/sec) elapsed = 0:0:02:35 / Tue May 12 11:19:50 2015
GPGPU-Sim PTX: 17100000 instructions simulated : ctaid=(2,4,0) tid=(27,3,0)
GPGPU-Sim PTX: 17200000 instructions simulated : ctaid=(0,4,0) tid=(30,0,0)
GPGPU-Sim uArch: cycles simulated: 48000  inst.: 15424333 (ipc=321.3) sim_rate=98873 (inst/sec) elapsed = 0:0:02:36 / Tue May 12 11:19:51 2015
GPGPU-Sim PTX: 17300000 instructions simulated : ctaid=(1,1,0) tid=(5,1,0)
GPGPU-Sim PTX: 17400000 instructions simulated : ctaid=(1,2,0) tid=(28,1,0)
GPGPU-Sim uArch: cycles simulated: 48500  inst.: 15578839 (ipc=321.2) sim_rate=98600 (inst/sec) elapsed = 0:0:02:38 / Tue May 12 11:19:53 2015
GPGPU-Sim PTX: 17500000 instructions simulated : ctaid=(0,7,0) tid=(25,1,0)
GPGPU-Sim PTX: 17600000 instructions simulated : ctaid=(2,14,0) tid=(14,3,0)
GPGPU-Sim uArch: cycles simulated: 49000  inst.: 15746763 (ipc=321.4) sim_rate=98417 (inst/sec) elapsed = 0:0:02:40 / Tue May 12 11:19:55 2015
GPGPU-Sim PTX: 17700000 instructions simulated : ctaid=(0,1,0) tid=(5,1,0)
GPGPU-Sim PTX: 17800000 instructions simulated : ctaid=(1,3,0) tid=(17,0,0)
GPGPU-Sim uArch: cycles simulated: 49500  inst.: 15900875 (ipc=321.2) sim_rate=98763 (inst/sec) elapsed = 0:0:02:41 / Tue May 12 11:19:56 2015
GPGPU-Sim PTX: 17900000 instructions simulated : ctaid=(0,7,0) tid=(31,3,0)
GPGPU-Sim uArch: cycles simulated: 50000  inst.: 16060392 (ipc=321.2) sim_rate=98530 (inst/sec) elapsed = 0:0:02:43 / Tue May 12 11:19:58 2015
GPGPU-Sim PTX: 18000000 instructions simulated : ctaid=(2,4,0) tid=(2,3,0)
GPGPU-Sim PTX: 18100000 instructions simulated : ctaid=(1,2,0) tid=(7,0,0)
GPGPU-Sim uArch: cycles simulated: 50500  inst.: 16220161 (ipc=321.2) sim_rate=98304 (inst/sec) elapsed = 0:0:02:45 / Tue May 12 11:20:00 2015
GPGPU-Sim PTX: 18200000 instructions simulated : ctaid=(0,1,0) tid=(0,1,0)
GPGPU-Sim PTX: 18300000 instructions simulated : ctaid=(1,11,0) tid=(31,1,0)
GPGPU-Sim uArch: cycles simulated: 51000  inst.: 16383200 (ipc=321.2) sim_rate=98102 (inst/sec) elapsed = 0:0:02:47 / Tue May 12 11:20:02 2015
GPGPU-Sim PTX: 18400000 instructions simulated : ctaid=(0,7,0) tid=(26,1,0)
GPGPU-Sim PTX: 18500000 instructions simulated : ctaid=(2,15,0) tid=(11,1,0)
GPGPU-Sim uArch: cycles simulated: 51500  inst.: 16546862 (ipc=321.3) sim_rate=97910 (inst/sec) elapsed = 0:0:02:49 / Tue May 12 11:20:04 2015
GPGPU-Sim PTX: 18600000 instructions simulated : ctaid=(1,3,0) tid=(11,2,0)
GPGPU-Sim PTX: 18700000 instructions simulated : ctaid=(0,0,0) tid=(16,1,0)
GPGPU-Sim uArch: cycles simulated: 52000  inst.: 16700549 (ipc=321.2) sim_rate=98238 (inst/sec) elapsed = 0:0:02:50 / Tue May 12 11:20:05 2015
GPGPU-Sim PTX: 18800000 instructions simulated : ctaid=(2,12,0) tid=(25,2,0)
GPGPU-Sim uArch: cycles simulated: 52500  inst.: 16862048 (ipc=321.2) sim_rate=98035 (inst/sec) elapsed = 0:0:02:52 / Tue May 12 11:20:07 2015
GPGPU-Sim PTX: 18900000 instructions simulated : ctaid=(1,4,0) tid=(22,1,0)
GPGPU-Sim PTX: 19000000 instructions simulated : ctaid=(3,2,0) tid=(17,1,0)
GPGPU-Sim uArch: cycles simulated: 53000  inst.: 17026487 (ipc=321.3) sim_rate=97853 (inst/sec) elapsed = 0:0:02:54 / Tue May 12 11:20:09 2015
GPGPU-Sim PTX: 19100000 instructions simulated : ctaid=(2,2,0) tid=(18,0,0)
GPGPU-Sim PTX: 19200000 instructions simulated : ctaid=(1,5,0) tid=(1,1,0)
GPGPU-Sim uArch: cycles simulated: 53500  inst.: 17187380 (ipc=321.3) sim_rate=98213 (inst/sec) elapsed = 0:0:02:55 / Tue May 12 11:20:10 2015
GPGPU-Sim PTX: 19300000 instructions simulated : ctaid=(0,2,0) tid=(9,2,0)
GPGPU-Sim PTX: 19400000 instructions simulated : ctaid=(0,1,0) tid=(4,1,0)
GPGPU-Sim uArch: cycles simulated: 54000  inst.: 17349965 (ipc=321.3) sim_rate=98022 (inst/sec) elapsed = 0:0:02:57 / Tue May 12 11:20:12 2015
GPGPU-Sim PTX: 19500000 instructions simulated : ctaid=(3,5,0) tid=(29,0,0)
GPGPU-Sim PTX: 19600000 instructions simulated : ctaid=(2,9,0) tid=(18,0,0)
GPGPU-Sim uArch: cycles simulated: 54500  inst.: 17512316 (ipc=321.3) sim_rate=97834 (inst/sec) elapsed = 0:0:02:59 / Tue May 12 11:20:14 2015
GPGPU-Sim PTX: 19700000 instructions simulated : ctaid=(1,12,0) tid=(1,3,0)
GPGPU-Sim PTX: 19800000 instructions simulated : ctaid=(2,1,0) tid=(26,2,0)
GPGPU-Sim uArch: cycles simulated: 55000  inst.: 17670138 (ipc=321.3) sim_rate=98167 (inst/sec) elapsed = 0:0:03:00 / Tue May 12 11:20:15 2015
GPGPU-Sim PTX: 19900000 instructions simulated : ctaid=(2,19,0) tid=(21,0,0)
GPGPU-Sim uArch: cycles simulated: 55500  inst.: 17832190 (ipc=321.3) sim_rate=97979 (inst/sec) elapsed = 0:0:03:02 / Tue May 12 11:20:17 2015
GPGPU-Sim PTX: 20000000 instructions simulated : ctaid=(2,14,0) tid=(18,3,0)
GPGPU-Sim PTX: 20100000 instructions simulated : ctaid=(1,2,0) tid=(1,2,0)
GPGPU-Sim uArch: cycles simulated: 56000  inst.: 17995290 (ipc=321.3) sim_rate=97800 (inst/sec) elapsed = 0:0:03:04 / Tue May 12 11:20:19 2015
GPGPU-Sim PTX: 20200000 instructions simulated : ctaid=(1,4,0) tid=(13,1,0)
GPGPU-Sim PTX: 20300000 instructions simulated : ctaid=(2,18,0) tid=(28,1,0)
GPGPU-Sim uArch: cycles simulated: 56500  inst.: 18157297 (ipc=321.4) sim_rate=98147 (inst/sec) elapsed = 0:0:03:05 / Tue May 12 11:20:20 2015
GPGPU-Sim PTX: 20400000 instructions simulated : ctaid=(2,6,0) tid=(1,3,0)
GPGPU-Sim PTX: 20500000 instructions simulated : ctaid=(1,15,0) tid=(2,1,0)
GPGPU-Sim uArch: cycles simulated: 57000  inst.: 18312294 (ipc=321.3) sim_rate=97926 (inst/sec) elapsed = 0:0:03:07 / Tue May 12 11:20:22 2015
GPGPU-Sim PTX: 20600000 instructions simulated : ctaid=(0,4,0) tid=(3,2,0)
GPGPU-Sim PTX: 20700000 instructions simulated : ctaid=(2,11,0) tid=(1,3,0)
GPGPU-Sim uArch: cycles simulated: 57500  inst.: 18470527 (ipc=321.2) sim_rate=98247 (inst/sec) elapsed = 0:0:03:08 / Tue May 12 11:20:23 2015
GPGPU-Sim PTX: 20800000 instructions simulated : ctaid=(1,0,0) tid=(31,2,0)
GPGPU-Sim uArch: cycles simulated: 58000  inst.: 18638297 (ipc=321.3) sim_rate=98096 (inst/sec) elapsed = 0:0:03:10 / Tue May 12 11:20:25 2015
GPGPU-Sim PTX: 20900000 instructions simulated : ctaid=(2,5,0) tid=(29,0,0)
GPGPU-Sim PTX: 21000000 instructions simulated : ctaid=(0,1,0) tid=(10,3,0)
GPGPU-Sim uArch: cycles simulated: 58500  inst.: 18793285 (ipc=321.3) sim_rate=97881 (inst/sec) elapsed = 0:0:03:12 / Tue May 12 11:20:27 2015
GPGPU-Sim PTX: 21100000 instructions simulated : ctaid=(0,4,0) tid=(17,0,0)
GPGPU-Sim PTX: 21200000 instructions simulated : ctaid=(1,3,0) tid=(15,2,0)
GPGPU-Sim uArch: cycles simulated: 59000  inst.: 18951912 (ipc=321.2) sim_rate=98196 (inst/sec) elapsed = 0:0:03:13 / Tue May 12 11:20:28 2015
GPGPU-Sim PTX: 21300000 instructions simulated : ctaid=(2,11,0) tid=(31,0,0)
GPGPU-Sim PTX: 21400000 instructions simulated : ctaid=(1,1,0) tid=(2,0,0)
GPGPU-Sim uArch: cycles simulated: 59500  inst.: 19114687 (ipc=321.3) sim_rate=98024 (inst/sec) elapsed = 0:0:03:15 / Tue May 12 11:20:30 2015
GPGPU-Sim PTX: 21500000 instructions simulated : ctaid=(1,2,0) tid=(25,0,0)
GPGPU-Sim PTX: 21600000 instructions simulated : ctaid=(0,13,0) tid=(12,0,0)
GPGPU-Sim uArch: cycles simulated: 60000  inst.: 19276278 (ipc=321.3) sim_rate=97849 (inst/sec) elapsed = 0:0:03:17 / Tue May 12 11:20:32 2015
GPGPU-Sim PTX: 21700000 instructions simulated : ctaid=(0,16,0) tid=(11,3,0)
GPGPU-Sim uArch: cycles simulated: 60500  inst.: 19435452 (ipc=321.2) sim_rate=98158 (inst/sec) elapsed = 0:0:03:18 / Tue May 12 11:20:33 2015
GPGPU-Sim PTX: 21800000 instructions simulated : ctaid=(0,8,0) tid=(10,0,0)
GPGPU-Sim PTX: 21900000 instructions simulated : ctaid=(1,4,0) tid=(16,0,0)
GPGPU-Sim uArch: cycles simulated: 61000  inst.: 19596381 (ipc=321.3) sim_rate=97981 (inst/sec) elapsed = 0:0:03:20 / Tue May 12 11:20:35 2015
GPGPU-Sim PTX: 22000000 instructions simulated : ctaid=(1,4,0) tid=(18,1,0)
GPGPU-Sim PTX: 22100000 instructions simulated : ctaid=(1,1,0) tid=(15,0,0)
GPGPU-Sim uArch: cycles simulated: 61500  inst.: 19764928 (ipc=321.4) sim_rate=97846 (inst/sec) elapsed = 0:0:03:22 / Tue May 12 11:20:37 2015
GPGPU-Sim PTX: 22200000 instructions simulated : ctaid=(0,18,0) tid=(30,0,0)
GPGPU-Sim PTX: 22300000 instructions simulated : ctaid=(2,7,0) tid=(20,3,0)
GPGPU-Sim uArch: cycles simulated: 62000  inst.: 19916574 (ipc=321.2) sim_rate=98111 (inst/sec) elapsed = 0:0:03:23 / Tue May 12 11:20:38 2015
GPGPU-Sim PTX: 22400000 instructions simulated : ctaid=(0,7,0) tid=(19,0,0)
GPGPU-Sim PTX: 22500000 instructions simulated : ctaid=(1,3,0) tid=(18,1,0)
GPGPU-Sim uArch: cycles simulated: 62500  inst.: 20080980 (ipc=321.3) sim_rate=97956 (inst/sec) elapsed = 0:0:03:25 / Tue May 12 11:20:40 2015
GPGPU-Sim PTX: 22600000 instructions simulated : ctaid=(1,9,0) tid=(26,1,0)
GPGPU-Sim PTX: 22700000 instructions simulated : ctaid=(1,11,0) tid=(22,2,0)
GPGPU-Sim uArch: cycles simulated: 63000  inst.: 20248468 (ipc=321.4) sim_rate=97818 (inst/sec) elapsed = 0:0:03:27 / Tue May 12 11:20:42 2015
GPGPU-Sim PTX: 22800000 instructions simulated : ctaid=(1,3,0) tid=(21,3,0)
GPGPU-Sim uArch: cycles simulated: 63500  inst.: 20405956 (ipc=321.4) sim_rate=98105 (inst/sec) elapsed = 0:0:03:28 / Tue May 12 11:20:43 2015
GPGPU-Sim PTX: 22900000 instructions simulated : ctaid=(3,5,0) tid=(18,1,0)
GPGPU-Sim PTX: 23000000 instructions simulated : ctaid=(0,1,0) tid=(1,3,0)
GPGPU-Sim uArch: cycles simulated: 64000  inst.: 20567522 (ipc=321.4) sim_rate=97940 (inst/sec) elapsed = 0:0:03:30 / Tue May 12 11:20:45 2015
GPGPU-Sim PTX: 23100000 instructions simulated : ctaid=(2,9,0) tid=(15,0,0)
GPGPU-Sim PTX: 23200000 instructions simulated : ctaid=(2,1,0) tid=(24,0,0)
GPGPU-Sim uArch: cycles simulated: 64500  inst.: 20726160 (ipc=321.3) sim_rate=97764 (inst/sec) elapsed = 0:0:03:32 / Tue May 12 11:20:47 2015
GPGPU-Sim PTX: 23300000 instructions simulated : ctaid=(0,3,0) tid=(11,1,0)
GPGPU-Sim PTX: 23400000 instructions simulated : ctaid=(2,6,0) tid=(18,3,0)
GPGPU-Sim uArch: cycles simulated: 65000  inst.: 20882332 (ipc=321.3) sim_rate=98039 (inst/sec) elapsed = 0:0:03:33 / Tue May 12 11:20:48 2015
GPGPU-Sim PTX: 23500000 instructions simulated : ctaid=(1,2,0) tid=(16,3,0)
GPGPU-Sim uArch: cycles simulated: 65500  inst.: 21045069 (ipc=321.3) sim_rate=97884 (inst/sec) elapsed = 0:0:03:35 / Tue May 12 11:20:50 2015
GPGPU-Sim PTX: 23600000 instructions simulated : ctaid=(0,9,0) tid=(24,1,0)
GPGPU-Sim PTX: 23700000 instructions simulated : ctaid=(0,3,0) tid=(25,1,0)
GPGPU-Sim uArch: cycles simulated: 66000  inst.: 21208704 (ipc=321.3) sim_rate=97735 (inst/sec) elapsed = 0:0:03:37 / Tue May 12 11:20:52 2015
GPGPU-Sim PTX: 23800000 instructions simulated : ctaid=(0,11,0) tid=(6,3,0)
GPGPU-Sim PTX: 23900000 instructions simulated : ctaid=(0,1,0) tid=(17,3,0)
GPGPU-Sim uArch: cycles simulated: 66500  inst.: 21368428 (ipc=321.3) sim_rate=98020 (inst/sec) elapsed = 0:0:03:38 / Tue May 12 11:20:53 2015
GPGPU-Sim PTX: 24000000 instructions simulated : ctaid=(1,2,0) tid=(29,3,0)
GPGPU-Sim PTX: 24100000 instructions simulated : ctaid=(0,5,0) tid=(24,1,0)
GPGPU-Sim uArch: cycles simulated: 67000  inst.: 21526482 (ipc=321.3) sim_rate=97847 (inst/sec) elapsed = 0:0:03:40 / Tue May 12 11:20:55 2015
GPGPU-Sim PTX: 24200000 instructions simulated : ctaid=(0,22,0) tid=(4,0,0)
GPGPU-Sim PTX: 24300000 instructions simulated : ctaid=(0,9,0) tid=(14,3,0)
GPGPU-Sim uArch: cycles simulated: 67500  inst.: 21688783 (ipc=321.3) sim_rate=97697 (inst/sec) elapsed = 0:0:03:42 / Tue May 12 11:20:57 2015
GPGPU-Sim PTX: 24400000 instructions simulated : ctaid=(1,9,0) tid=(11,3,0)
GPGPU-Sim PTX: 24500000 instructions simulated : ctaid=(1,6,0) tid=(17,0,0)
GPGPU-Sim uArch: cycles simulated: 68000  inst.: 21855322 (ipc=321.4) sim_rate=98005 (inst/sec) elapsed = 0:0:03:43 / Tue May 12 11:20:58 2015
GPGPU-Sim PTX: 24600000 instructions simulated : ctaid=(0,1,0) tid=(31,2,0)
GPGPU-Sim uArch: cycles simulated: 68500  inst.: 22012791 (ipc=321.4) sim_rate=97834 (inst/sec) elapsed = 0:0:03:45 / Tue May 12 11:21:00 2015
GPGPU-Sim PTX: 24700000 instructions simulated : ctaid=(2,12,0) tid=(7,1,0)
GPGPU-Sim PTX: 24800000 instructions simulated : ctaid=(2,2,0) tid=(12,0,0)
GPGPU-Sim uArch: cycles simulated: 69000  inst.: 22172403 (ipc=321.3) sim_rate=97675 (inst/sec) elapsed = 0:0:03:47 / Tue May 12 11:21:02 2015
GPGPU-Sim PTX: 24900000 instructions simulated : ctaid=(1,3,0) tid=(16,1,0)
GPGPU-Sim PTX: 25000000 instructions simulated : ctaid=(1,1,0) tid=(15,1,0)
GPGPU-Sim uArch: cycles simulated: 69500  inst.: 22336874 (ipc=321.4) sim_rate=97968 (inst/sec) elapsed = 0:0:03:48 / Tue May 12 11:21:03 2015
GPGPU-Sim PTX: 25100000 instructions simulated : ctaid=(0,4,0) tid=(10,2,0)
GPGPU-Sim PTX: 25200000 instructions simulated : ctaid=(0,12,0) tid=(18,2,0)
GPGPU-Sim uArch: cycles simulated: 70000  inst.: 22492326 (ipc=321.3) sim_rate=97792 (inst/sec) elapsed = 0:0:03:50 / Tue May 12 11:21:05 2015
GPGPU-Sim PTX: 25300000 instructions simulated : ctaid=(1,4,0) tid=(7,1,0)
GPGPU-Sim PTX: 25400000 instructions simulated : ctaid=(0,1,0) tid=(18,0,0)
GPGPU-Sim uArch: cycles simulated: 70500  inst.: 22652785 (ipc=321.3) sim_rate=97641 (inst/sec) elapsed = 0:0:03:52 / Tue May 12 11:21:07 2015
GPGPU-Sim PTX: 25500000 instructions simulated : ctaid=(0,9,0) tid=(7,2,0)
GPGPU-Sim uArch: cycles simulated: 71000  inst.: 22814829 (ipc=321.3) sim_rate=97917 (inst/sec) elapsed = 0:0:03:53 / Tue May 12 11:21:08 2015
GPGPU-Sim PTX: 25600000 instructions simulated : ctaid=(1,7,0) tid=(31,2,0)
GPGPU-Sim PTX: 25700000 instructions simulated : ctaid=(0,6,0) tid=(27,2,0)
GPGPU-Sim uArch: cycles simulated: 71500  inst.: 22979395 (ipc=321.4) sim_rate=97784 (inst/sec) elapsed = 0:0:03:55 / Tue May 12 11:21:10 2015
GPGPU-Sim PTX: 25800000 instructions simulated : ctaid=(2,10,0) tid=(28,1,0)
GPGPU-Sim PTX: 25900000 instructions simulated : ctaid=(0,1,0) tid=(19,2,0)
GPGPU-Sim uArch: cycles simulated: 72000  inst.: 23134123 (ipc=321.3) sim_rate=97612 (inst/sec) elapsed = 0:0:03:57 / Tue May 12 11:21:12 2015
GPGPU-Sim PTX: 26000000 instructions simulated : ctaid=(1,4,0) tid=(2,1,0)
GPGPU-Sim PTX: 26100000 instructions simulated : ctaid=(1,7,0) tid=(15,3,0)
GPGPU-Sim uArch: cycles simulated: 72500  inst.: 23298172 (ipc=321.4) sim_rate=97891 (inst/sec) elapsed = 0:0:03:58 / Tue May 12 11:21:13 2015
GPGPU-Sim PTX: 26200000 instructions simulated : ctaid=(0,13,0) tid=(7,0,0)
GPGPU-Sim PTX: 26300000 instructions simulated : ctaid=(2,6,0) tid=(12,1,0)
GPGPU-Sim uArch: cycles simulated: 73000  inst.: 23459345 (ipc=321.4) sim_rate=97747 (inst/sec) elapsed = 0:0:04:00 / Tue May 12 11:21:15 2015
GPGPU-Sim PTX: 26400000 instructions simulated : ctaid=(2,7,0) tid=(17,3,0)
GPGPU-Sim uArch: cycles simulated: 73500  inst.: 23613921 (ipc=321.3) sim_rate=97578 (inst/sec) elapsed = 0:0:04:02 / Tue May 12 11:21:17 2015
GPGPU-Sim PTX: 26500000 instructions simulated : ctaid=(2,13,0) tid=(25,1,0)
GPGPU-Sim PTX: 26600000 instructions simulated : ctaid=(1,4,0) tid=(29,0,0)
GPGPU-Sim uArch: cycles simulated: 74000  inst.: 23780538 (ipc=321.4) sim_rate=97862 (inst/sec) elapsed = 0:0:04:03 / Tue May 12 11:21:18 2015
GPGPU-Sim PTX: 26700000 instructions simulated : ctaid=(2,1,0) tid=(3,0,0)
GPGPU-Sim PTX: 26800000 instructions simulated : ctaid=(3,14,0) tid=(20,1,0)
GPGPU-Sim uArch: cycles simulated: 74500  inst.: 23945198 (ipc=321.4) sim_rate=97735 (inst/sec) elapsed = 0:0:04:05 / Tue May 12 11:21:20 2015
GPGPU-Sim PTX: 26900000 instructions simulated : ctaid=(0,4,0) tid=(25,3,0)
GPGPU-Sim PTX: 27000000 instructions simulated : ctaid=(1,21,0) tid=(21,1,0)
GPGPU-Sim uArch: cycles simulated: 75000  inst.: 24103236 (ipc=321.4) sim_rate=97583 (inst/sec) elapsed = 0:0:04:07 / Tue May 12 11:21:22 2015
GPGPU-Sim PTX: 27100000 instructions simulated : ctaid=(2,6,0) tid=(8,2,0)
GPGPU-Sim PTX: 27200000 instructions simulated : ctaid=(0,2,0) tid=(2,2,0)
GPGPU-Sim uArch: cycles simulated: 75500  inst.: 24261644 (ipc=321.3) sim_rate=97829 (inst/sec) elapsed = 0:0:04:08 / Tue May 12 11:21:23 2015
GPGPU-Sim PTX: 27300000 instructions simulated : ctaid=(3,3,0) tid=(30,1,0)
GPGPU-Sim uArch: cycles simulated: 76000  inst.: 24423655 (ipc=321.4) sim_rate=97694 (inst/sec) elapsed = 0:0:04:10 / Tue May 12 11:21:25 2015
GPGPU-Sim PTX: 27400000 instructions simulated : ctaid=(0,1,0) tid=(14,0,0)
GPGPU-Sim PTX: 27500000 instructions simulated : ctaid=(1,4,0) tid=(10,1,0)
GPGPU-Sim uArch: cycles simulated: 76500  inst.: 24580834 (ipc=321.3) sim_rate=97931 (inst/sec) elapsed = 0:0:04:11 / Tue May 12 11:21:26 2015
GPGPU-Sim PTX: 27600000 instructions simulated : ctaid=(1,12,0) tid=(30,3,0)
GPGPU-Sim PTX: 27700000 instructions simulated : ctaid=(2,8,0) tid=(18,0,0)
GPGPU-Sim uArch: cycles simulated: 77000  inst.: 24741005 (ipc=321.3) sim_rate=97790 (inst/sec) elapsed = 0:0:04:13 / Tue May 12 11:21:28 2015
GPGPU-Sim PTX: 27800000 instructions simulated : ctaid=(1,5,0) tid=(17,1,0)
GPGPU-Sim PTX: 27900000 instructions simulated : ctaid=(2,13,0) tid=(11,0,0)
GPGPU-Sim uArch: cycles simulated: 77500  inst.: 24902512 (ipc=321.3) sim_rate=97656 (inst/sec) elapsed = 0:0:04:15 / Tue May 12 11:21:30 2015
GPGPU-Sim PTX: 28000000 instructions simulated : ctaid=(3,16,0) tid=(29,1,0)
GPGPU-Sim PTX: 28100000 instructions simulated : ctaid=(2,7,0) tid=(23,1,0)
GPGPU-Sim uArch: cycles simulated: 78000  inst.: 25064798 (ipc=321.3) sim_rate=97528 (inst/sec) elapsed = 0:0:04:17 / Tue May 12 11:21:32 2015
GPGPU-Sim PTX: 28200000 instructions simulated : ctaid=(2,16,0) tid=(29,2,0)
GPGPU-Sim uArch: cycles simulated: 78500  inst.: 25222536 (ipc=321.3) sim_rate=97761 (inst/sec) elapsed = 0:0:04:18 / Tue May 12 11:21:33 2015
GPGPU-Sim PTX: 28300000 instructions simulated : ctaid=(0,11,0) tid=(6,2,0)
GPGPU-Sim PTX: 28400000 instructions simulated : ctaid=(2,10,0) tid=(22,1,0)
GPGPU-Sim uArch: cycles simulated: 79000  inst.: 25384375 (ipc=321.3) sim_rate=97632 (inst/sec) elapsed = 0:0:04:20 / Tue May 12 11:21:35 2015
GPGPU-Sim PTX: 28500000 instructions simulated : ctaid=(0,1,0) tid=(3,0,0)
GPGPU-Sim PTX: 28600000 instructions simulated : ctaid=(0,16,0) tid=(16,0,0)
GPGPU-Sim uArch: cycles simulated: 79500  inst.: 25550665 (ipc=321.4) sim_rate=97895 (inst/sec) elapsed = 0:0:04:21 / Tue May 12 11:21:36 2015
GPGPU-Sim PTX: 28700000 instructions simulated : ctaid=(2,4,0) tid=(16,1,0)
GPGPU-Sim PTX: 28800000 instructions simulated : ctaid=(1,5,0) tid=(17,3,0)
GPGPU-Sim uArch: cycles simulated: 80000  inst.: 25713820 (ipc=321.4) sim_rate=97771 (inst/sec) elapsed = 0:0:04:23 / Tue May 12 11:21:38 2015
GPGPU-Sim PTX: 28900000 instructions simulated : ctaid=(1,10,0) tid=(6,2,0)
GPGPU-Sim PTX: 29000000 instructions simulated : ctaid=(0,0,0) tid=(16,0,0)
GPGPU-Sim uArch: cycles simulated: 80500  inst.: 25875985 (ipc=321.4) sim_rate=97645 (inst/sec) elapsed = 0:0:04:25 / Tue May 12 11:21:40 2015
GPGPU-Sim PTX: 29100000 instructions simulated : ctaid=(1,1,0) tid=(12,2,0)
GPGPU-Sim PTX: 29200000 instructions simulated : ctaid=(1,2,0) tid=(8,1,0)
GPGPU-Sim uArch: cycles simulated: 81000  inst.: 26035209 (ipc=321.4) sim_rate=97876 (inst/sec) elapsed = 0:0:04:26 / Tue May 12 11:21:41 2015
GPGPU-Sim PTX: 29300000 instructions simulated : ctaid=(0,10,0) tid=(26,1,0)
GPGPU-Sim uArch: cycles simulated: 81500  inst.: 26195512 (ipc=321.4) sim_rate=97744 (inst/sec) elapsed = 0:0:04:28 / Tue May 12 11:21:43 2015
GPGPU-Sim PTX: 29400000 instructions simulated : ctaid=(0,3,0) tid=(26,3,0)
GPGPU-Sim PTX: 29500000 instructions simulated : ctaid=(2,7,0) tid=(1,3,0)
GPGPU-Sim uArch: cycles simulated: 82000  inst.: 26357960 (ipc=321.4) sim_rate=97622 (inst/sec) elapsed = 0:0:04:30 / Tue May 12 11:21:45 2015
GPGPU-Sim PTX: 29600000 instructions simulated : ctaid=(1,22,0) tid=(12,0,0)
GPGPU-Sim PTX: 29700000 instructions simulated : ctaid=(2,10,0) tid=(26,1,0)
GPGPU-Sim uArch: cycles simulated: 82500  inst.: 26517879 (ipc=321.4) sim_rate=97851 (inst/sec) elapsed = 0:0:04:31 / Tue May 12 11:21:46 2015
GPGPU-Sim PTX: 29800000 instructions simulated : ctaid=(3,0,0) tid=(5,3,0)
GPGPU-Sim PTX: 29900000 instructions simulated : ctaid=(2,9,0) tid=(8,1,0)
GPGPU-Sim uArch: cycles simulated: 83000  inst.: 26680916 (ipc=321.5) sim_rate=97732 (inst/sec) elapsed = 0:0:04:33 / Tue May 12 11:21:48 2015
GPGPU-Sim PTX: 30000000 instructions simulated : ctaid=(2,2,0) tid=(4,3,0)
GPGPU-Sim PTX: 30100000 instructions simulated : ctaid=(0,18,0) tid=(24,2,0)
GPGPU-Sim uArch: cycles simulated: 83500  inst.: 26842765 (ipc=321.5) sim_rate=97610 (inst/sec) elapsed = 0:0:04:35 / Tue May 12 11:21:50 2015
GPGPU-Sim PTX: 30200000 instructions simulated : ctaid=(1,9,0) tid=(10,3,0)
GPGPU-Sim PTX: 30300000 instructions simulated : ctaid=(0,3,0) tid=(10,2,0)
GPGPU-Sim uArch: cycles simulated: 84000  inst.: 27001762 (ipc=321.4) sim_rate=97832 (inst/sec) elapsed = 0:0:04:36 / Tue May 12 11:21:51 2015
GPGPU-Sim PTX: 30400000 instructions simulated : ctaid=(1,19,0) tid=(31,2,0)
GPGPU-Sim uArch: cycles simulated: 84500  inst.: 27160266 (ipc=321.4) sim_rate=97698 (inst/sec) elapsed = 0:0:04:38 / Tue May 12 11:21:53 2015
GPGPU-Sim PTX: 30500000 instructions simulated : ctaid=(0,22,0) tid=(7,2,0)
GPGPU-Sim PTX: 30600000 instructions simulated : ctaid=(0,5,0) tid=(5,2,0)
GPGPU-Sim uArch: cycles simulated: 85000  inst.: 27327028 (ipc=321.5) sim_rate=97596 (inst/sec) elapsed = 0:0:04:40 / Tue May 12 11:21:55 2015
GPGPU-Sim PTX: 30700000 instructions simulated : ctaid=(0,2,0) tid=(27,1,0)
GPGPU-Sim PTX: 30800000 instructions simulated : ctaid=(0,11,0) tid=(10,1,0)
GPGPU-Sim uArch: cycles simulated: 85500  inst.: 27480387 (ipc=321.4) sim_rate=97794 (inst/sec) elapsed = 0:0:04:41 / Tue May 12 11:21:56 2015
GPGPU-Sim PTX: 30900000 instructions simulated : ctaid=(1,16,0) tid=(13,2,0)
GPGPU-Sim PTX: 31000000 instructions simulated : ctaid=(2,3,0) tid=(0,1,0)
GPGPU-Sim uArch: cycles simulated: 86000  inst.: 27643417 (ipc=321.4) sim_rate=97679 (inst/sec) elapsed = 0:0:04:43 / Tue May 12 11:21:58 2015
GPGPU-Sim PTX: 31100000 instructions simulated : ctaid=(1,6,0) tid=(1,2,0)
GPGPU-Sim PTX: 31200000 instructions simulated : ctaid=(1,0,0) tid=(2,2,0)
GPGPU-Sim uArch: cycles simulated: 86500  inst.: 27806323 (ipc=321.5) sim_rate=97566 (inst/sec) elapsed = 0:0:04:45 / Tue May 12 11:22:00 2015
GPGPU-Sim PTX: 31300000 instructions simulated : ctaid=(2,2,0) tid=(9,2,0)
GPGPU-Sim uArch: cycles simulated: 87000  inst.: 27961144 (ipc=321.4) sim_rate=97766 (inst/sec) elapsed = 0:0:04:46 / Tue May 12 11:22:01 2015
GPGPU-Sim PTX: 31400000 instructions simulated : ctaid=(0,4,0) tid=(15,2,0)
GPGPU-Sim PTX: 31500000 instructions simulated : ctaid=(2,3,0) tid=(21,2,0)
GPGPU-Sim uArch: cycles simulated: 87500  inst.: 28124881 (ipc=321.4) sim_rate=97655 (inst/sec) elapsed = 0:0:04:48 / Tue May 12 11:22:03 2015
GPGPU-Sim PTX: 31600000 instructions simulated : ctaid=(0,5,0) tid=(18,1,0)
GPGPU-Sim PTX: 31700000 instructions simulated : ctaid=(3,14,0) tid=(28,3,0)
GPGPU-Sim uArch: cycles simulated: 88000  inst.: 28282126 (ipc=321.4) sim_rate=97524 (inst/sec) elapsed = 0:0:04:50 / Tue May 12 11:22:05 2015
GPGPU-Sim PTX: 31800000 instructions simulated : ctaid=(1,9,0) tid=(0,2,0)
GPGPU-Sim PTX: 31900000 instructions simulated : ctaid=(0,12,0) tid=(31,0,0)
GPGPU-Sim uArch: cycles simulated: 88500  inst.: 28442958 (ipc=321.4) sim_rate=97742 (inst/sec) elapsed = 0:0:04:51 / Tue May 12 11:22:06 2015
GPGPU-Sim PTX: 32000000 instructions simulated : ctaid=(1,18,0) tid=(7,3,0)
[...]
traffic_breakdown_memtocore[GLOBAL_ACC_W] = 530000 {8:66250,}
traffic_breakdown_memtocore[INST_ACC_R] = 28560 {136:210,}
maxmrqlatency = 437 
maxdqlatency = 0 
maxmflatency = 914 
averagemflatency = 235 
max_icnt2mem_latency = 283 
max_icnt2sh_latency = 278010 
mrq_lat_table:62159 	3316 	3353 	11536 	29102 	17177 	3720 	242 	36 	0 	0 	0 	0 	0 	0 	0 	0 	0 	0 	0 	0 	0 	0 	0 	0 	0 	0 	0 	0 	0 	0 	0 	
dq_lat_table:0 	0 	0 	0 	0 	0 	0 	0 	0 	0 	0 	0 	0 	0 	0 	0 	0 	0 	0 	0 	0 	0 	0 	0 	0 	0 	0 	0 	0 	0 	0 	0 	
mf_lat_table:0 	0 	0 	0 	0 	0 	0 	80530 	96815 	634 	0 	0 	0 	0 	0 	0 	0 	0 	0 	0 	0 	0 	0 	0 	0 	0 	0 	0 	0 	0 	0 	0 	
icnt2mem_lat_table:0 	0 	0 	147415 	29434 	1171 	121 	47 	1 	0 	0 	0 	0 	0 	0 	0 	0 	0 	0 	0 	0 	0 	0 	0 	
icnt2sh_lat_table:0 	0 	0 	43803 	57561 	10171 	194 	0 	0 	0 	0 	0 	1205 	2420 	4835 	9720 	19391 	27551 	1128 	0 	0 	0 	0 	0 	
mf_lat_pw_table:0 	0 	0 	0 	0 	0 	0 	547 	8 	0 	0 	0 	0 	0 	0 	0 	0 	0 	0 	0 	0 	0 	0 	0 	0 	0 	0 	0 	0 	0 	0 	0 	
maximum concurrent accesses to same row:
dram[0]:        14        13        18        18        14        13        32        32        41        37        13        19        13        18        11        12 
dram[1]:        14        13        18        18        13        15        32        32        40        41        16        17        14        15        13        13 
dram[2]:        13        12        19        15        13        12        32        32        58        26        18        20        18        17        12        13 
dram[3]:        13        13        21        17        14        13        32        32        30        48        18        14        16        14        11        14 
dram[4]:        13        16        20        16        14        13        32        32        35        41        18        22        19        16        12        13 
dram[5]:        12        14        19        18        14        13        32        32        47        27        22        14        19        13        13        14 
maximum service time to same row:
dram[0]:     10409      9131     11300     11575     11336     11463     12945     13162      7278      9479      9558      6688      9894      8656      9691      9390 
dram[1]:     10150     10388     11324     11588     11367     11468     12614     12622     10494      8603      7443      8503      9771      8889      9769      9404 
dram[2]:     10026     10399     11313     11587     11378     11500     12494     12626     10141      9160      9156      8441      9212      8130      9188      9400 
dram[3]:     10769     10422     11327     11594     11324     11443     13182     13290     10303      9113      9299      9931      9050     10278      9222      9419 
dram[4]:      8069     10247     11350     11519     11300     11318     13277     13248      9670      9248      9797      8772      8647      8590      9194     11163 
dram[5]:      9066     10665     11329     11472     10997     10941     13195     13094      8624      6646      9257      9380      8109      9868      9375     10850 
average row accesses per activate:
dram[0]:  2.546314  2.388592  2.477860  2.540643  2.503717  2.572243  2.561338  2.563670  2.723077  2.708647  2.657033  2.514706  2.558935  2.573643  2.527725  2.404293 
dram[1]:  2.513060  2.482375  2.422662  2.407609  2.554286  2.518727  2.666667  2.546642  2.671670  2.743396  2.543278  2.547486  2.553435  2.646123  2.523540  2.559160 
dram[2]:  2.512150  2.481550  2.524621  2.483577  2.560837  2.568998  2.591337  2.539889  2.651769  2.609712  2.555963  2.481884  2.519700  2.614931  2.577735  2.615234 
dram[3]:  2.472426  2.524436  2.484230  2.484346  2.527002  2.552381  2.633205  2.513812  2.741313  2.620072  2.504504  2.515539  2.482309  2.602339  2.457721  2.583170 
dram[4]:  2.473394  2.451554  2.516068  2.404255  2.702595  2.607422  2.653179  2.496337  2.687382  2.706215  2.501805  2.501832  2.655379  2.481413  2.545455  2.518027 
dram[5]:  2.402504  2.471349  2.474766  2.446069  2.580153  2.533835  2.605364  2.648649  2.646840  2.675373  2.554328  2.540591  2.504690  2.574181  2.563810  2.457407 
average row locality = 130641/51239 = 2.549640
number of total memory accesses made:
dram[0]:         0         0         0         0         0         0         0         0         0         0         0         0         0         0         0         0 
dram[1]:         0         0         0         0         0         0         0         0         0         0         0         0         0         0         0         0 
dram[2]:         0         0         0         0         0         0         0         0         0         0         0         0         0         0         0         0 
dram[3]:         0         0         0         0         0         0         0         0         0         0         0         0         0         0         0         0 
dram[4]:         0         0         0         0         0         0         0         0         0         0         0         0         0         0         0         0 
dram[5]:         0         0         0         0         0         0         0         0         0         0         0         0         0         0         0         0 
total accesses: 0
min_bank_accesses = 0!
min_chip_accesses = 0!
number of total read accesses:
dram[0]:       697       705       702       698       707       708       725       730       726       727       708       708       696       688       691       695 
dram[1]:       695       701       713       696       705       708       730       727       734       735       713       708       701       692       700       692 
dram[2]:       695       709       703       710       711       710       731       732       730       733       713       710       706       689       700       692 
dram[3]:       701       703       705       699       709       706       726       732       727       739       713       720       702       689       699       684 
dram[4]:       701       704       699       703       707       701       735       727       736       725       708       711       700       691       700       688 
dram[5]:       703       700       694       694       707       707       727       728       726       728       711       715       697       688       696       689 
total reads: 68035
bank skew: 739/684 = 1.08
chip skew: 11374/11310 = 1.01
number of total write accesses:
dram[0]:       650       635       641       646       640       645       653       639       690       714       671       660       650       640       631       649 
dram[1]:       652       637       634       633       636       637       654       638       690       719       668       660       637       639       640       649 
dram[2]:       649       636       630       651       636       649       645       637       694       718       680       660       637       642       643       647 
dram[3]:       644       640       634       650       648       634       638       633       693       723       677       656       631       646       638       636 
dram[4]:       647       637       632       653       647       634       642       636       691       712       678       655       633       644       644       639 
dram[5]:       640       637       630       644       645       641       633       644       698       706       676       662       638       648       650       638 
total reads: 62606
bank skew: 723/630 = 1.15
chip skew: 10454/10421 = 1.00
average mf latency per bank:
dram[0]:        317       312       317       315       319       323       334       334       322       328       308       315       317       316       320       315
dram[1]:        319       316       317       316       319       323       333       331       327       329       312       310       316       318       318       318
dram[2]:        317       317       321       312       318       324       331       335       334       327       314       314       313       318       316       319
dram[3]:        316       316       320       314       318       322       334       332       333       331       316       312       316       317       316       321
dram[4]:        315       316       323       314       321       325       334       333       329       324       317       312       320       315       315       316
dram[5]:        313       314       320       317       321       322       336       334       330       319       312       311       318       318       316       318
maximum mf latency per bank:
dram[0]:        385       385       404       401       409       481       529       422       673       804       392       485       451       448       382       446
dram[1]:        410       380       418       473       414       397       524       441       756       831       441       411       429       433       437       415
dram[2]:        418       426       409       393       421       385       503       494       883       829       438       430       388       428       466       423
dram[3]:        372       418       384       420       461       387       453       477       792       914       431       427       387       410       403       418
dram[4]:        404       418       399       388       441       435       457       526       766       712       409       413       411       431       395       395
dram[5]:        383       417       377       393       420       403       487       530       733       728       412       413       398       416       411       435

Number of Memory Banks Accessed per Memory Operation per Warp (from 0):
0	0	0	0	0	0	0	0	0	0	0	0	0	0	0	0	0	0	0	0	0	0	0	0	0	0	0	0	0	0	0	0	0	0	0	0	0	0	0	0	0	0	0	0	0	0	0	0	0	0	0	0	0	0	0	0	0	0	0	0	0	0	0	0	0	0	0	0	0	0	0	0	0	0	0	0	0	0	0	0	0	0	0	0	0	0	0	0	0	0	0	0	0	0	0	0	
Average # of Memory Banks Accessed per Memory Operation per Warp=-nan

position of mrq chosen
0	0	0	0	0	0	0	0	0	0	0	0	0	0	0	0	

average position of mrq chosen = -nan
Memory Partition 0: 
Cache L2_bank_000:
MSHR contents

Cache L2_bank_001:
MSHR contents

In Dram Latency Queue (total = 0): 
DRAM[0]: 16 bks, busW=4 BL=8 CL=12, tRRD=2 tCCD=6, tRCD=12 tRAS=28 tRP=12 tRC=40
n_cmd=366974 n_nop=311500 n_act=8536 n_pre=8520 n_req=21765 n_rd=22622 n_write=15796 bw_util=0.2094
n_activity=279116 dram_eff=0.2753
bk0: 1394a 338930i bk1: 1410a 338004i bk2: 1404a 337872i bk3: 1396a 338380i bk4: 1414a 337981i bk5: 1416a 338219i bk6: 1450a 337653i bk7: 1460a 337288i bk8: 1452a 337456i bk9: 1454a 336744i bk10: 1416a 338167i bk11: 1416a 337635i bk12: 1392a 337910i bk13: 1376a 338604i bk14: 1382a 338529i bk15: 1390a 337406i 
dram_util_bins: 0 0 0 0 0 0 0 0 0 0
dram_eff_bins: 0 0 0 0 0 0 0 0 0 0
mrqq: max=16 avg=1.12367
Memory Partition 1: 
Cache L2_bank_002:
MSHR contents

Cache L2_bank_003:
MSHR contents

In Dram Latency Queue (total = 0): 
DRAM[1]: 16 bks, busW=4 BL=8 CL=12, tRRD=2 tCCD=6, tRCD=12 tRAS=28 tRP=12 tRC=40
n_cmd=366974 n_nop=311479 n_act=8522 n_pre=8506 n_req=21773 n_rd=22700 n_write=15767 bw_util=0.2096
n_activity=279555 dram_eff=0.2752
bk0: 1390a 338678i bk1: 1402a 338042i bk2: 1426a 338009i bk3: 1392a 337569i bk4: 1410a 338286i bk5: 1416a 338094i bk6: 1460a 337807i bk7: 1454a 337562i bk8: 1468a 337003i bk9: 1470a 337169i bk10: 1426a 337532i bk11: 1416a 337016i bk12: 1402a 338302i bk13: 1384a 338765i bk14: 1400a 338479i bk15: 1384a 338115i 
dram_util_bins: 0 0 0 0 0 0 0 0 0 0
dram_eff_bins: 0 0 0 0 0 0 0 0 0 0
mrqq: max=16 avg=1.11989
Memory Partition 2: 
Cache L2_bank_004:
MSHR contents

Cache L2_bank_005:
MSHR contents

In Dram Latency Queue (total = 0): 
DRAM[2]: 16 bks, busW=4 BL=8 CL=12, tRRD=2 tCCD=6, tRCD=12 tRAS=28 tRP=12 tRC=40
n_cmd=366974 n_nop=311332 n_act=8543 n_pre=8527 n_req=21828 n_rd=22748 n_write=15824 bw_util=0.2102
n_activity=281085 dram_eff=0.2745
bk0: 1390a 338950i bk1: 1418a 337711i bk2: 1406a 338461i bk3: 1420a 337947i bk4: 1422a 338123i bk5: 1420a 338033i bk6: 1462a 338466i bk7: 1464a 337788i bk8: 1460a 337006i bk9: 1466a 336244i bk10: 1426a 337381i bk11: 1420a 337122i bk12: 1412a 337674i bk13: 1378a 338329i bk14: 1400a 337680i bk15: 1384a 337733i 
dram_util_bins: 0 0 0 0 0 0 0 0 0 0
dram_eff_bins: 0 0 0 0 0 0 0 0 0 0
mrqq: max=16 avg=1.11929
Memory Partition 3: 
Cache L2_bank_006:
MSHR contents

Cache L2_bank_007:
MSHR contents

In Dram Latency Queue (total = 0): 
DRAM[3]: 16 bks, busW=4 BL=8 CL=12, tRRD=2 tCCD=6, tRCD=12 tRAS=28 tRP=12 tRC=40
n_cmd=366974 n_nop=311377 n_act=8564 n_pre=8548 n_req=21775 n_rd=22708 n_write=15777 bw_util=0.2097
n_activity=280443 dram_eff=0.2745
bk0: 1402a 337946i bk1: 1406a 338260i bk2: 1410a 338627i bk3: 1398a 337742i bk4: 1418a 337549i bk5: 1412a 338833i bk6: 1452a 338242i bk7: 1464a 336989i bk8: 1454a 337535i bk9: 1478a 336665i bk10: 1426a 337107i bk11: 1440a 337735i bk12: 1404a 337796i bk13: 1378a 338672i bk14: 1398a 337852i bk15: 1368a 338682i 
dram_util_bins: 0 0 0 0 0 0 0 0 0 0
dram_eff_bins: 0 0 0 0 0 0 0 0 0 0
mrqq: max=16 avg=1.10493
Memory Partition 4: 
Cache L2_bank_008:
MSHR contents

Cache L2_bank_009:
MSHR contents

In Dram Latency Queue (total = 0): 
DRAM[4]: 16 bks, busW=4 BL=8 CL=12, tRRD=2 tCCD=6, tRCD=12 tRAS=28 tRP=12 tRC=40
n_cmd=366974 n_nop=311502 n_act=8520 n_pre=8504 n_req=21760 n_rd=22672 n_write=15776 bw_util=0.2095
n_activity=279899 dram_eff=0.2747
bk0: 1402a 337766i bk1: 1408a 338367i bk2: 1398a 338158i bk3: 1406a 337349i bk4: 1414a 338298i bk5: 1402a 339156i bk6: 1470a 338104i bk7: 1454a 337535i bk8: 1472a 337361i bk9: 1450a 337257i bk10: 1416a 337206i bk11: 1422a 336872i bk12: 1400a 338796i bk13: 1382a 338865i bk14: 1400a 338616i bk15: 1376a 338015i 
dram_util_bins: 0 0 0 0 0 0 0 0 0 0
dram_eff_bins: 0 0 0 0 0 0 0 0 0 0
mrqq: max=16 avg=1.13307
Memory Partition 5: 
Cache L2_bank_010:
MSHR contents

Cache L2_bank_011:
MSHR contents

In Dram Latency Queue (total = 0): 
DRAM[5]: 16 bks, busW=4 BL=8 CL=12, tRRD=2 tCCD=6, tRCD=12 tRAS=28 tRP=12 tRC=40
n_cmd=366974 n_nop=311475 n_act=8554 n_pre=8538 n_req=21740 n_rd=22620 n_write=15787 bw_util=0.2093
n_activity=280149 dram_eff=0.2742
bk0: 1406a 337342i bk1: 1400a 337954i bk2: 1388a 338504i bk3: 1388a 337928i bk4: 1414a 338314i bk5: 1414a 338200i bk6: 1454a 338202i bk7: 1456a 338548i bk8: 1452a 336906i bk9: 1456a 336838i bk10: 1422a 337182i bk11: 1430a 337215i bk12: 1394a 338058i bk13: 1376a 338863i bk14: 1392a 338177i bk15: 1378a 338468i 
dram_util_bins: 0 0 0 0 0 0 0 0 0 0
dram_eff_bins: 0 0 0 0 0 0 0 0 0 0
mrqq: max=16 avg=1.12644

========= L2 cache stats =========
L2_cache_bank[0]: Access = 14870, Miss = 5652, Miss_rate = 0.380, Pending_hits = 3662, Reservation_fails = 720
L2_cache_bank[1]: Access = 14867, Miss = 5659, Miss_rate = 0.381, Pending_hits = 3636, Reservation_fails = 697
L2_cache_bank[2]: Access = 14875, Miss = 5691, Miss_rate = 0.383, Pending_hits = 3619, Reservation_fails = 808
L2_cache_bank[3]: Access = 14841, Miss = 5659, Miss_rate = 0.381, Pending_hits = 3635, Reservation_fails = 786
L2_cache_bank[4]: Access = 14854, Miss = 5689, Miss_rate = 0.383, Pending_hits = 3657, Reservation_fails = 870
L2_cache_bank[5]: Access = 14833, Miss = 5685, Miss_rate = 0.383, Pending_hits = 3719, Reservation_fails = 683
L2_cache_bank[6]: Access = 14861, Miss = 5682, Miss_rate = 0.382, Pending_hits = 3648, Reservation_fails = 979
L2_cache_bank[7]: Access = 14811, Miss = 5672, Miss_rate = 0.383, Pending_hits = 3660, Reservation_fails = 632
L2_cache_bank[8]: Access = 14872, Miss = 5686, Miss_rate = 0.382, Pending_hits = 3649, Reservation_fails = 986
L2_cache_bank[9]: Access = 14810, Miss = 5650, Miss_rate = 0.381, Pending_hits = 3602, Reservation_fails = 425
L2_cache_bank[10]: Access = 14872, Miss = 5661, Miss_rate = 0.381, Pending_hits = 3609, Reservation_fails = 904
L2_cache_bank[11]: Access = 14823, Miss = 5649, Miss_rate = 0.381, Pending_hits = 3634, Reservation_fails = 532
L2_total_cache_accesses = 178189
L2_total_cache_misses = 68035
L2_total_cache_miss_rate = 0.3818
L2_total_cache_pending_hits = 43730
L2_total_cache_reservation_fails = 9022
L2_total_cache_breakdown:
	L2_cache_stats_breakdown[GLOBAL_ACC_R][HIT] = 51779
	L2_cache_stats_breakdown[GLOBAL_ACC_R][HIT_RESERVED] = 24754
	L2_cache_stats_breakdown[GLOBAL_ACC_R][MISS] = 35181
	L2_cache_stats_breakdown[GLOBAL_ACC_R][RESERVATION_FAIL] = 7677
	L2_cache_stats_breakdown[CONST_ACC_R][HIT] = 11
	L2_cache_stats_breakdown[CONST_ACC_R][HIT_RESERVED] = 3
	L2_cache_stats_breakdown[CONST_ACC_R][MISS] = 1
	L2_cache_stats_breakdown[CONST_ACC_R][RESERVATION_FAIL] = 109
	L2_cache_stats_breakdown[GLOBAL_ACC_W][HIT] = 14480
	L2_cache_stats_breakdown[GLOBAL_ACC_W][HIT_RESERVED] = 18931
	L2_cache_stats_breakdown[GLOBAL_ACC_W][MISS] = 32839
	L2_cache_stats_breakdown[GLOBAL_ACC_W][RESERVATION_FAIL] = 26
	L2_cache_stats_breakdown[INST_ACC_R][HIT] = 154
	L2_cache_stats_breakdown[INST_ACC_R][HIT_RESERVED] = 42
	L2_cache_stats_breakdown[INST_ACC_R][MISS] = 14
	L2_cache_stats_breakdown[INST_ACC_R][RESERVATION_FAIL] = 1210
L2_cache_data_port_util = 0.080
L2_cache_fill_port_util = 0.082

icnt_total_pkts_mem_to_simt=625915
icnt_total_pkts_simt_to_mem=338189
LD_mem_lat_dist  0 0 0 0 0 0 0 0 0 0 0 0 0 0 0 0 0 0 0 0 0 0 0 0 0 0 0
ST_mem_lat_dist  0 0 0 0 0 0 0 0 0 0 0 0 0 0 0 0 0 0 0 0 0 0 0 0 0 0 0
----------------------------Interconnect-DETAILS--------------------------------
Class 0:
Packet latency average = 12.1311
	minimum = 6
	maximum = 169
Network latency average = 10.6489
	minimum = 6
	maximum = 168
Slowest packet = 5451
Flit latency average = 9.47272
	minimum = 6
	maximum = 168
Slowest flit = 15716
Fragmentation average = 0.000606098
	minimum = 0
	maximum = 157
Injected packet rate average = 0.0474772
	minimum = 0.0367971 (at node 13)
	maximum = 0.0535051 (at node 17)
Accepted packet rate average = 0.0474772
	minimum = 0.0367971 (at node 13)
	maximum = 0.0535051 (at node 17)
Injected flit rate average = 0.128439
	minimum = 0.0684505 (at node 13)
	maximum = 0.18809 (at node 17)
Accepted flit rate average= 0.128439
	minimum = 0.101215 (at node 24)
	maximum = 0.16486 (at node 7)
Injected packet length average = 2.70528
Accepted packet length average = 2.70528
Total in-flight flits = 0 (0 measured)
====== Overall Traffic Statistics ======
====== Traffic class 0 ======
Packet latency average = 12.1311 (1 samples)
	minimum = 6 (1 samples)
	maximum = 169 (1 samples)
Network latency average = 10.6489 (1 samples)
	minimum = 6 (1 samples)
	maximum = 168 (1 samples)
Flit latency average = 9.47272 (1 samples)
	minimum = 6 (1 samples)
	maximum = 168 (1 samples)
Fragmentation average = 0.000606098 (1 samples)
	minimum = 0 (1 samples)
	maximum = 157 (1 samples)
Injected packet rate average = 0.0474772 (1 samples)
	minimum = 0.0367971 (1 samples)
	maximum = 0.0535051 (1 samples)
Accepted packet rate average = 0.0474772 (1 samples)
	minimum = 0.0367971 (1 samples)
	maximum = 0.0535051 (1 samples)
Injected flit rate average = 0.128439 (1 samples)
	minimum = 0.0684505 (1 samples)
	maximum = 0.18809 (1 samples)
Accepted flit rate average = 0.128439 (1 samples)
	minimum = 0.101215 (1 samples)
	maximum = 0.16486 (1 samples)
Injected packet size average = 2.70528 (1 samples)
Accepted packet size average = 2.70528 (1 samples)
Hops average = 1 (1 samples)
----------------------------END-of-Interconnect-DETAILS-------------------------


gpgpu_simulation_time = 0 days, 0 hrs, 13 min, 9 sec (789 sec)
gpgpu_simulation_rate = 92156 (inst/sec)
gpgpu_simulation_rate = 352 (cycle/sec)
GPGPU-Sim: synchronize waiting for inactive GPU simulation
GPGPU-Sim API: Stream Manager State
GPGPU-Sim: detected inactive GPU simulation thread

1x GPU_laplace3d: 787827.250000 (ms) 

Copy u2 to host: 448.488007 (ms) 

1x Gold_laplace3d: 4.769000 (ms) 
 

 rms error = 0.000000 
CUDA_SAFE_CALL( cudaFree(d_u1) );
CUDA_SAFE_CALL( cudaFree(d_u2) );
free(h_u1);
free(h_u2);
free(h_u3);

Press ENTER to exit...
