

        *** GPGPU-Sim Simulator Version 3.2.2  [build 0] ***


GPGPU-Sim PTX: simulation mode 0 (can change with PTX_SIM_MODE_FUNC environment variable:
               1=functional simulation only, 0=detailed performance simulator)
GPGPU-Sim: Configuration options:

-network_mode                           1 # Interconnection network mode
-inter_config_file   config_fermi_islip.icnt # Interconnection network config file
-gpgpu_ptx_use_cuobjdump                    1 # Use cuobjdump to extract ptx and sass from binaries
-gpgpu_experimental_lib_support                    0 # Try to extract code from cuda libraries [Broken because of unknown cudaGetExportTable]
-gpgpu_ptx_convert_to_ptxplus                    0 # Convert SASS (native ISA) to ptxplus and run ptxplus
-gpgpu_ptx_force_max_capability                   20 # Force maximum compute capability
-gpgpu_ptx_inst_debug_to_file                    0 # Dump executed instructions' debug information to file
-gpgpu_ptx_inst_debug_file       inst_debug.txt # Executed instructions' debug output file
-gpgpu_ptx_inst_debug_thread_uid                    1 # Thread UID for executed instructions' debug output
-gpgpu_simd_model                       1 # 1 = post-dominator
-gpgpu_shader_core_pipeline              1536:32 # shader core pipeline config, i.e., {<nthread>:<warpsize>}
-gpgpu_tex_cache:l1  4:128:24,L:R:m:N:L,F:128:4,128:2 # per-shader L1 texture cache  (READ-ONLY) config  {<nsets>:<bsize>:<assoc>,<rep>:<wr>:<alloc>:<wr_alloc>,<mshr>:<N>:<merge>,<mq>:<rf>}
-gpgpu_const_cache:l1 64:64:2,L:R:f:N:L,A:2:32,4 # per-shader L1 constant memory cache  (READ-ONLY) config  {<nsets>:<bsize>:<assoc>,<rep>:<wr>:<alloc>:<wr_alloc>,<mshr>:<N>:<merge>,<mq>} 
-gpgpu_cache:il1     4:128:4,L:R:f:N:L,A:2:32,4 # shader L1 instruction cache config  {<nsets>:<bsize>:<assoc>,<rep>:<wr>:<alloc>:<wr_alloc>,<mshr>:<N>:<merge>,<mq>} 
-gpgpu_cache:dl1     32:128:4,L:L:m:N:H,A:32:8,8 # per-shader L1 data cache config  {<nsets>:<bsize>:<assoc>,<rep>:<wr>:<alloc>:<wr_alloc>,<mshr>:<N>:<merge>,<mq> | none}
-gpgpu_cache:dl1PrefL1                 none # per-shader L1 data cache config  {<nsets>:<bsize>:<assoc>,<rep>:<wr>:<alloc>:<wr_alloc>,<mshr>:<N>:<merge>,<mq> | none}
-gpgpu_cache:dl1PreShared                 none # per-shader L1 data cache config  {<nsets>:<bsize>:<assoc>,<rep>:<wr>:<alloc>:<wr_alloc>,<mshr>:<N>:<merge>,<mq> | none}
-gmem_skip_L1D                          0 # global memory access skip L1D cache (implements -Xptxas -dlcm=cg, default=no skip)
-gpgpu_perfect_mem                      0 # enable perfect memory mode (no cache miss)
-n_regfile_gating_group                    4 # group of lanes that should be read/written together)
-gpgpu_clock_gated_reg_file                    0 # enable clock gated reg file for power calculations
-gpgpu_clock_gated_lanes                    0 # enable clock gated lanes for power calculations
-gpgpu_shader_registers                32768 # Number of registers per shader core. Limits number of concurrent CTAs. (default 8192)
-gpgpu_shader_cta                       8 # Maximum number of concurrent CTAs in shader (default 8)
-gpgpu_num_cta_barriers                   16 # Maximum number of named barriers per CTA (default 16)
-gpgpu_n_clusters                      15 # number of processing clusters
-gpgpu_n_cores_per_cluster                    1 # number of simd cores per cluster
-gpgpu_n_cluster_ejection_buffer_size                    8 # number of packets in ejection buffer
-gpgpu_n_ldst_response_buffer_size                    2 # number of response packets in ld/st unit ejection buffer
-gpgpu_shmem_size                   16384 # Size of shared memory per shader core (default 16kB)
-gpgpu_shmem_size                   49152 # Size of shared memory per shader core (default 16kB)
-gpgpu_shmem_size_PrefL1                16384 # Size of shared memory per shader core (default 16kB)
-gpgpu_shmem_size_PrefShared                16384 # Size of shared memory per shader core (default 16kB)
-gpgpu_shmem_num_banks                   32 # Number of banks in the shared memory in each shader core (default 16)
-gpgpu_shmem_limited_broadcast                    0 # Limit shared memory to do one broadcast per cycle (default on)
-gpgpu_shmem_warp_parts                    1 # Number of portions a warp is divided into for shared memory bank conflict check 
-gpgpu_warpdistro_shader                   -1 # Specify which shader core to collect the warp size distribution from
-gpgpu_warp_issue_shader                    0 # Specify which shader core to collect the warp issue distribution from
-gpgpu_local_mem_map                    1 # Mapping from local memory space address to simulated GPU physical address space (default = enabled)
-gpgpu_num_reg_banks                   16 # Number of register banks (default = 8)
-gpgpu_reg_bank_use_warp_id                    0 # Use warp ID in mapping registers to banks (default = off)
-gpgpu_operand_collector_num_units_sp                    6 # number of collector units (default = 4)
-gpgpu_operand_collector_num_units_sfu                    8 # number of collector units (default = 4)
-gpgpu_operand_collector_num_units_mem                    2 # number of collector units (default = 2)
-gpgpu_operand_collector_num_units_gen                    0 # number of collector units (default = 0)
-gpgpu_operand_collector_num_in_ports_sp                    2 # number of collector unit in ports (default = 1)
-gpgpu_operand_collector_num_in_ports_sfu                    1 # number of collector unit in ports (default = 1)
-gpgpu_operand_collector_num_in_ports_mem                    1 # number of collector unit in ports (default = 1)
-gpgpu_operand_collector_num_in_ports_gen                    0 # number of collector unit in ports (default = 0)
-gpgpu_operand_collector_num_out_ports_sp                    2 # number of collector unit in ports (default = 1)
-gpgpu_operand_collector_num_out_ports_sfu                    1 # number of collector unit in ports (default = 1)
-gpgpu_operand_collector_num_out_ports_mem                    1 # number of collector unit in ports (default = 1)
-gpgpu_operand_collector_num_out_ports_gen                    0 # number of collector unit in ports (default = 0)
-gpgpu_coalesce_arch                   13 # Coalescing arch (default = 13, anything else is off for now)
-gpgpu_num_sched_per_core                    1 # Number of warp schedulers per core
-gpgpu_max_insn_issue_per_warp                    1 # Max number of instructions that can be issued per warp in one cycle by scheduler
-gpgpu_simt_core_sim_order                    1 # Select the simulation order of cores in a cluster (0=Fix, 1=Round-Robin)
-gpgpu_pipeline_widths        2,1,1,2,1,1,2 # Pipeline widths ID_OC_SP,ID_OC_SFU,ID_OC_MEM,OC_EX_SP,OC_EX_SFU,OC_EX_MEM,EX_WB
-gpgpu_num_sp_units                     2 # Number of SP units (default=1)
-gpgpu_num_sfu_units                    1 # Number of SF units (default=1)
-gpgpu_num_mem_units                    1 # Number if ldst units (default=1) WARNING: not hooked up to anything
-gpgpu_scheduler                      gto # Scheduler configuration: < lrr | gto | two_level_active > If two_level_active:<num_active_warps>:<inner_prioritization>:<outer_prioritization>For complete list of prioritization values see shader.h enum scheduler_prioritization_typeDefault: gto
-gpgpu_dram_scheduler                    1 # 0 = fifo, 1 = FR-FCFS (defaul)
-gpgpu_dram_partition_queues              8:8:8:8 # i2$:$2d:d2$:$2i
-l2_ideal                               0 # Use a ideal L2 cache that always hit
-gpgpu_cache:dl2     64:128:8,L:B:m:W:L,A:32:4,4:0,32 # unified banked L2 data cache config  {<nsets>:<bsize>:<assoc>,<rep>:<wr>:<alloc>:<wr_alloc>,<mshr>:<N>:<merge>,<mq>}
-gpgpu_cache:dl2_texture_only                    0 # L2 cache used for texture only
-gpgpu_n_mem                            6 # number of memory modules (e.g. memory controllers) in gpu
-gpgpu_n_sub_partition_per_mchannel                    2 # number of memory subpartition in each memory module
-gpgpu_n_mem_per_ctrlr                    2 # number of memory chips per memory controller
-gpgpu_memlatency_stat                   14 # track and display latency statistics 0x2 enables MC, 0x4 enables queue logs
-gpgpu_frfcfs_dram_sched_queue_size                   16 # 0 = unlimited (default); # entries per chip
-gpgpu_dram_return_queue_size                  116 # 0 = unlimited (default); # entries per chip
-gpgpu_dram_buswidth                    4 # default = 4 bytes (8 bytes per cycle at DDR)
-gpgpu_dram_burst_length                    8 # Burst length of each DRAM request (default = 4 data bus cycle)
-dram_data_command_freq_ratio                    4 # Frequency ratio between DRAM data bus and command bus (default = 2 times, i.e. DDR)
-gpgpu_dram_timing_opt nbk=16:CCD=2:RRD=6:RCD=12:RAS=28:RP=12:RC=40: CL=12:WL=4:CDLR=5:WR=12:nbkgrp=4:CCDL=3:RTPL=2 # DRAM timing parameters = {nbk:tCCD:tRRD:tRCD:tRAS:tRP:tRC:CL:WL:tCDLR:tWR:nbkgrp:tCCDL:tRTPL}
-rop_latency                          120 # ROP queue latency (default 85)
-dram_latency                         100 # DRAM latency (default 30)
-gpgpu_mem_addr_mapping dramid@8;00000000.00000000.00000000.00000000.0000RRRR.RRRRRRRR.BBBCCCCB.CCSSSSSS # mapping memory address to dram model {dramid@<start bit>;<memory address map>}
-gpgpu_mem_addr_test                    0 # run sweep test to check address mapping for aliased address
-gpgpu_mem_address_mask                    1 # 0 = old addressing mask, 1 = new addressing mask, 2 = new add. mask + flipped bank sel and chip sel bits
-gpuwattch_xml_file  gpuwattch_gtx480.xml # GPUWattch XML file
-power_simulation_enabled                    1 # Turn on power simulator (1=On, 0=Off)
-power_per_cycle_dump                    0 # Dump detailed power output each cycle
-power_trace_enabled                    0 # produce a file for the power trace (1=On, 0=Off)
-power_trace_zlevel                     6 # Compression level of the power trace output log (0=no comp, 9=highest)
-steady_power_levels_enabled                    0 # produce a file for the steady power levels (1=On, 0=Off)
-steady_state_definition                  8:4 # allowed deviation:number of samples
-gpgpu_max_cycle                        0 # terminates gpu simulation early (0 = no limit)
-gpgpu_max_insn                         0 # terminates gpu simulation early (0 = no limit)
-gpgpu_max_cta                          0 # terminates gpu simulation early (0 = no limit)
-gpgpu_runtime_stat                   500 # display runtime statistics such as dram utilization {<freq>:<flag>}
-liveness_message_freq                    1 # Minimum number of seconds between simulation liveness messages (0 = always print)
-gpgpu_flush_l1_cache                    0 # Flush L1 cache at the end of each kernel call
-gpgpu_flush_l2_cache                    0 # Flush L2 cache at the end of each kernel call
-gpgpu_deadlock_detect                    1 # Stop the simulation at deadlock (1=on (default), 0=off)
-gpgpu_ptx_instruction_classification                    0 # if enabled will classify ptx instruction types per kernel (Max 255 kernels now)
-gpgpu_ptx_sim_mode                     0 # Select between Performance (default) or Functional simulation (1)
-gpgpu_clock_domains 700.0:700.0:700.0:924.0 # Clock Domain Frequencies in MhZ {<Core Clock>:<ICNT Clock>:<L2 Clock>:<DRAM Clock>}
-gpgpu_max_concurrent_kernel                    8 # maximum kernels that can run concurrently on GPU
-gpgpu_cflog_interval                    0 # Interval between each snapshot in control flow logger
-visualizer_enabled                     0 # Turn on visualizer output (1=On, 0=Off)
-visualizer_outputfile                 NULL # Specifies the output log file for visualizer
-visualizer_zlevel                      6 # Compression level of the visualizer output log (0=no comp, 9=highest)
-trace_enabled                          0 # Turn on traces
-trace_components                    none # comma seperated list of traces to enable. Complete list found in trace_streams.tup. Default none
-trace_sampling_core                    0 # The core which is printed using CORE_DPRINTF. Default 0
-trace_sampling_memory_partition                   -1 # The memory partition which is printed using MEMPART_DPRINTF. Default -1 (i.e. all)
-enable_ptx_file_line_stats                    1 # Turn on PTX source line statistic profiling. (1 = On)
-ptx_line_stats_filename gpgpu_inst_stats.txt # Output file for PTX source line statistics.
-save_embedded_ptx                      0 # saves ptx files embedded in binary as <n>.ptx
-keep                                   0 # keep intermediate files created by GPGPU-Sim when interfacing with external programs
-gpgpu_ptx_save_converted_ptxplus                    0 # Saved converted ptxplus to a file
-ptx_opcode_latency_int         4,13,4,5,145 # Opcode latencies for integers <ADD,MAX,MUL,MAD,DIV>Default 1,1,19,25,145
-ptx_opcode_latency_fp          4,13,4,5,39 # Opcode latencies for single precision floating points <ADD,MAX,MUL,MAD,DIV>Default 1,1,1,1,30
-ptx_opcode_latency_dp         8,19,8,8,330 # Opcode latencies for double precision floating points <ADD,MAX,MUL,MAD,DIV>Default 8,8,8,8,335
-ptx_opcode_initiation_int            1,2,2,1,8 # Opcode initiation intervals for integers <ADD,MAX,MUL,MAD,DIV>Default 1,1,4,4,32
-ptx_opcode_initiation_fp            1,2,1,1,4 # Opcode initiation intervals for single precision floating points <ADD,MAX,MUL,MAD,DIV>Default 1,1,1,1,5
-ptx_opcode_initiation_dp         8,16,8,8,130 # Opcode initiation intervals for double precision floating points <ADD,MAX,MUL,MAD,DIV>Default 8,8,8,8,130
DRAM Timing Options:
nbk                                    16 # number of banks
CCD                                     2 # column to column delay
RRD                                     6 # minimal delay between activation of rows in different banks
RCD                                    12 # row to column delay
RAS                                    28 # time needed to activate row
RP                                     12 # time needed to precharge (deactivate) row
RC                                     40 # row cycle time
CDLR                                    5 # switching from write to read (changes tWTR)
WR                                     12 # last data-in to row precharge
CL                                     12 # CAS latency
WL                                      4 # Write latency
nbkgrp                                  4 # number of bank groups
CCDL                                    3 # column to column delay between accesses to different bank groups
RTPL                                    2 # read to precharge delay between accesses to different bank groups
Total number of memory sub partition = 12
addr_dec_mask[CHIP]  = 0000000000000000 	high:64 low:0
addr_dec_mask[BK]    = 000000000000e100 	high:16 low:8
addr_dec_mask[ROW]   = 000000000fff0000 	high:28 low:16
addr_dec_mask[COL]   = 0000000000001eff 	high:13 low:0
addr_dec_mask[BURST] = 000000000000003f 	high:6 low:0
sub_partition_id_mask = 0000000000000100
GPGPU-Sim uArch: clock freqs: 700000000.000000:700000000.000000:700000000.000000:924000000.000000
GPGPU-Sim uArch: clock periods: 0.00000000142857142857:0.00000000142857142857:0.00000000142857142857:0.00000000108225108225
*** Initializing Memory Statistics ***
GPGPU-Sim uArch: interconnect node map (shaderID+MemID to icntID)
GPGPU-Sim uArch: Memory nodes ID start from index: 15
GPGPU-Sim uArch:    0   1   2   3   4
GPGPU-Sim uArch:    5   6   7   8   9
GPGPU-Sim uArch:   10  11  12  13  14
GPGPU-Sim uArch:   15  16  17  18  19
GPGPU-Sim uArch:   20  21  22  23  24
GPGPU-Sim uArch:   25  26
GPGPU-Sim uArch: interconnect node reverse map (icntID to shaderID+MemID)
GPGPU-Sim uArch: Memory nodes start from ID: 15
GPGPU-Sim uArch:    0   1   2   3   4
GPGPU-Sim uArch:    5   6   7   8   9
GPGPU-Sim uArch:   10  11  12  13  14
GPGPU-Sim uArch:   15  16  17  18  19
GPGPU-Sim uArch:   20  21  22  23  24
GPGPU-Sim uArch:   25  26
130bf62a589be09f89f7c8514b8093ee  /home/kishore/project_source/gpu_class_proj/gpgpusim-benchmarks-master/bin/release/MUM
GPGPU-Sim uArch: performance model initialization complete.
GPGPU-Sim PTX: __cudaRegisterFatBinary, fat_cubin_handle = 1, filename=mummergpu.cu
self exe links to: /home/kishore/project_source/gpu_class_proj/gpgpusim-benchmarks-master/bin/release/MUM
Running md5sum using "md5sum /home/kishore/project_source/gpu_class_proj/gpgpusim-benchmarks-master/bin/release/MUM "
Running cuobjdump using "$CUDA_INSTALL_PATH/bin/cuobjdump -ptx -elf -sass /home/kishore/project_source/gpu_class_proj/gpgpusim-benchmarks-master/bin/release/MUM > _cuobjdump_complete_output_MY6b0j"
Parsing file _cuobjdump_complete_output_MY6b0j
######### cuobjdump parser ########
## Adding new section PTX
Adding ptx filename: _cuobjdump_1.ptx
Adding arch: sm_10
Adding identifier: mummergpu.cu
## Adding new section ELF
Adding arch: sm_10
Adding identifier: mummergpu.cu
## Adding new section ELF
Adding arch: sm_20
Adding identifier: mummergpu.cu
## Adding new section PTX
Adding ptx filename: _cuobjdump_2.ptx
Adding arch: sm_20
Adding identifier: mummergpu.cu
Done parsing!!!
GPGPU-Sim PTX: __cudaRegisterFunction _Z17mummergpuRCKernelP10MatchCoordPcPKiS3_ii : hostFun 0x0x409600, fat_cubin_handle = 1
GPGPU-Sim PTX: allocating stack frame region for .param "__cudaparmf1__Z10set_resultRK14TextureAddressP10MatchCoordiiii" from 0x0 to 0x8
GPGPU-Sim PTX: allocating stack frame region for .param "__cudaparmf2__Z10set_resultRK14TextureAddressP10MatchCoordiiii" from 0x8 to 0x10
GPGPU-Sim PTX: allocating stack frame region for .param "__cudaparmf3__Z10set_resultRK14TextureAddressP10MatchCoordiiii" from 0x10 to 0x14
GPGPU-Sim PTX: allocating stack frame region for .param "__cudaparmf4__Z10set_resultRK14TextureAddressP10MatchCoordiiii" from 0x14 to 0x18
GPGPU-Sim PTX: allocating stack frame region for .param "__cudaparmf5__Z10set_resultRK14TextureAddressP10MatchCoordiiii" from 0x18 to 0x1c
GPGPU-Sim PTX: allocating stack frame region for .param "__cudaparmf6__Z10set_resultRK14TextureAddressP10MatchCoordiiii" from 0x1c to 0x20
GPGPU-Sim PTX: allocating stack frame region for .param "__cudaretf__Z6getRefi" from 0x0 to 0x4
GPGPU-Sim PTX: allocating stack frame region for .param "__cudaparmf1__Z6getRefi" from 0x4 to 0x8
GPGPU-Sim PTX: allocating stack frame region for .param "__cudaretf__Z2rcc" from 0x0 to 0x4
GPGPU-Sim PTX: allocating stack frame region for .param "__cudaparmf1__Z2rcc" from 0x4 to 0x8
GPGPU-Sim PTX: instruction assembly for function '_Z10set_resultRK14TextureAddressP10MatchCoordiiii'...   done.
GPGPU-Sim PTX: finding reconvergence points for '_Z10set_resultRK14TextureAddressP10MatchCoordiiii'...
GPGPU-Sim PTX: Finding dominators for '_Z10set_resultRK14TextureAddressP10MatchCoordiiii'...
GPGPU-Sim PTX: Finding immediate dominators for '_Z10set_resultRK14TextureAddressP10MatchCoordiiii'...
GPGPU-Sim PTX: Finding postdominators for '_Z10set_resultRK14TextureAddressP10MatchCoordiiii'...
GPGPU-Sim PTX: Finding immediate postdominators for '_Z10set_resultRK14TextureAddressP10MatchCoordiiii'...
GPGPU-Sim PTX: pre-decoding instructions for '_Z10set_resultRK14TextureAddressP10MatchCoordiiii'...
GPGPU-Sim PTX: reconvergence points for _Z10set_resultRK14TextureAddressP10MatchCoordiiii...
GPGPU-Sim PTX:  1 (potential) branch divergence @  PC=0x068 (_1.ptx:79) @%p1 bra $Lt_0_1026;
GPGPU-Sim PTX:    immediate post dominator      @  PC=0x0c0 (_1.ptx:95) ret;
GPGPU-Sim PTX: ... end of reconvergence points for _Z10set_resultRK14TextureAddressP10MatchCoordiiii
GPGPU-Sim PTX: ... done pre-decoding instructions for '_Z10set_resultRK14TextureAddressP10MatchCoordiiii'.
GPGPU-Sim PTX: allocating global region for "reftex" from 0x100 to 0x104 (global memory space)
GPGPU-Sim PTX: instruction assembly for function '_Z6getRefi'...   done.
GPGPU-Sim PTX: finding reconvergence points for '_Z6getRefi'...
GPGPU-Sim PTX: Finding dominators for '_Z6getRefi'...
GPGPU-Sim PTX: Finding immediate dominators for '_Z6getRefi'...
GPGPU-Sim PTX: Finding postdominators for '_Z6getRefi'...
GPGPU-Sim PTX: Finding immediate postdominators for '_Z6getRefi'...
GPGPU-Sim PTX: pre-decoding instructions for '_Z6getRefi'...
GPGPU-Sim PTX: reconvergence points for _Z6getRefi...
GPGPU-Sim PTX: ... end of reconvergence points for _Z6getRefi
GPGPU-Sim PTX: ... done pre-decoding instructions for '_Z6getRefi'.
GPGPU-Sim PTX: instruction assembly for function '_Z2rcc'...   done.
GPGPU-Sim PTX: finding reconvergence points for '_Z2rcc'...
GPGPU-Sim PTX: Finding dominators for '_Z2rcc'...
GPGPU-Sim PTX: Finding immediate dominators for '_Z2rcc'...
GPGPU-Sim PTX: Finding postdominators for '_Z2rcc'...
GPGPU-Sim PTX: Finding immediate postdominators for '_Z2rcc'...
GPGPU-Sim PTX: pre-decoding instructions for '_Z2rcc'...
GPGPU-Sim PTX: reconvergence points for _Z2rcc...
GPGPU-Sim PTX:  1 (potential) branch divergence @  PC=0x190 (_1.ptx:142) @%p1 bra $Lt_2_258;
GPGPU-Sim PTX:    immediate post dominator      @  PC=0x258 (_1.ptx:180) mov.s32 %r9, %r8;
GPGPU-Sim PTX:  2 (potential) branch divergence @  PC=0x1a8 (_1.ptx:145) @%p2 bra $Lt_2_514;
GPGPU-Sim PTX:    immediate post dominator      @  PC=0x258 (_1.ptx:180) mov.s32 %r9, %r8;
GPGPU-Sim PTX:  3 (potential) branch divergence @  PC=0x1c0 (_1.ptx:148) @%p3 bra $Lt_2_770;
GPGPU-Sim PTX:    immediate post dominator      @  PC=0x258 (_1.ptx:180) mov.s32 %r9, %r8;
GPGPU-Sim PTX:  4 (potential) branch divergence @  PC=0x1d8 (_1.ptx:151) @%p4 bra $Lt_2_1026;
GPGPU-Sim PTX:    immediate post dominator      @  PC=0x258 (_1.ptx:180) mov.s32 %r9, %r8;
GPGPU-Sim PTX:  5 (potential) branch divergence @  PC=0x1f0 (_1.ptx:154) @%p5 bra $Lt_2_1282;
GPGPU-Sim PTX:    immediate post dominator      @  PC=0x258 (_1.ptx:180) mov.s32 %r9, %r8;
GPGPU-Sim PTX:  6 (potential) branch divergence @  PC=0x1f8 (_1.ptx:155) bra.uni $Lt_2_1538;
GPGPU-Sim PTX:    immediate post dominator      @  PC=0x250 (_1.ptx:178) mov.s32 %r8, %r2;
GPGPU-Sim PTX:  7 (potential) branch divergence @  PC=0x208 (_1.ptx:159) bra.uni $LBB13__Z2rcc;
GPGPU-Sim PTX:    immediate post dominator      @  PC=0x258 (_1.ptx:180) mov.s32 %r9, %r8;
GPGPU-Sim PTX:  8 (potential) branch divergence @  PC=0x218 (_1.ptx:163) bra.uni $LBB13__Z2rcc;
GPGPU-Sim PTX:    immediate post dominator      @  PC=0x258 (_1.ptx:180) mov.s32 %r9, %r8;
GPGPU-Sim PTX:  9 (potential) branch divergence @  PC=0x228 (_1.ptx:167) bra.uni $LBB13__Z2rcc;
GPGPU-Sim PTX:    immediate post dominator      @  PC=0x258 (_1.ptx:180) mov.s32 %r9, %r8;
GPGPU-Sim PTX: 10 (potential) branch divergence @  PC=0x238 (_1.ptx:171) bra.uni $LBB13__Z2rcc;
GPGPU-Sim PTX:    immediate post dominator      @  PC=0x258 (_1.ptx:180) mov.s32 %r9, %r8;
GPGPU-Sim PTX: 11 (potential) branch divergence @  PC=0x248 (_1.ptx:175) bra.uni $LBB13__Z2rcc;
GPGPU-Sim PTX:    immediate post dominator      @  PC=0x258 (_1.ptx:180) mov.s32 %r9, %r8;
GPGPU-Sim PTX: ... end of reconvergence points for _Z2rcc
GPGPU-Sim PTX: ... done pre-decoding instructions for '_Z2rcc'.
GPGPU-Sim PTX: allocating global region for "nodetex" from 0x104 to 0x108 (global memory space)
GPGPU-Sim PTX: allocating global region for "childrentex" from 0x108 to 0x10c (global memory space)
GPGPU-Sim PTX: allocating stack frame region for .local "__cuda_local_var_38004_22_non_const_prev_16" from 0x0 to 0x4
GPGPU-Sim PTX: allocating stack frame region for .local "__cuda_local_var_38003_16_non_const_node_32" from 0x10 to 0x20
GPGPU-Sim PTX: instruction assembly for function '_Z15mummergpuKernelP10MatchCoordPcPKiS3_ii'...   done.
GPGPU-Sim PTX: finding reconvergence points for '_Z15mummergpuKernelP10MatchCoordPcPKiS3_ii'...
GPGPU-Sim PTX: Finding dominators for '_Z15mummergpuKernelP10MatchCoordPcPKiS3_ii'...
GPGPU-Sim PTX: Finding immediate dominators for '_Z15mummergpuKernelP10MatchCoordPcPKiS3_ii'...
GPGPU-Sim PTX: Finding postdominators for '_Z15mummergpuKernelP10MatchCoordPcPKiS3_ii'...
GPGPU-Sim PTX: Finding immediate postdominators for '_Z15mummergpuKernelP10MatchCoordPcPKiS3_ii'...
GPGPU-Sim PTX: pre-decoding instructions for '_Z15mummergpuKernelP10MatchCoordPcPKiS3_ii'...
GPGPU-Sim PTX: reconvergence points for _Z15mummergpuKernelP10MatchCoordPcPKiS3_ii...
GPGPU-Sim PTX:  1 (potential) branch divergence @  PC=0x2a8 (_1.ptx:211) @%p1 bra $Lt_3_34562;
GPGPU-Sim PTX:    immediate post dominator      @  PC=0xa80 (_1.ptx:536) exit;
GPGPU-Sim PTX:  2 (potential) branch divergence @  PC=0x2b0 (_1.ptx:212) bra.uni $LBB50__Z15mummergpuKernelP10MatchCoordPcPKiS3_ii;
GPGPU-Sim PTX:    immediate post dominator      @  PC=0xa80 (_1.ptx:536) exit;
GPGPU-Sim PTX:  3 (potential) branch divergence @  PC=0x368 (_1.ptx:240) @%p2 bra $LBB50__Z15mummergpuKernelP10MatchCoordPcPKiS3_ii;
GPGPU-Sim PTX:    immediate post dominator      @  PC=0xa80 (_1.ptx:536) exit;
GPGPU-Sim PTX:  4 (potential) branch divergence @  PC=0x400 (_1.ptx:261) @%p3 bra $Lt_3_35842;
GPGPU-Sim PTX:    immediate post dominator      @  PC=0x448 (_1.ptx:273) cvt.s64.s32 %rd17, %r18;
GPGPU-Sim PTX:  5 (potential) branch divergence @  PC=0x478 (_1.ptx:279) @%p4 bra $Lt_3_40962;
GPGPU-Sim PTX:    immediate post dominator      @  PC=0x9e8 (_1.ptx:514) cvt.rn.f32.u32 %f25, %r54;
GPGPU-Sim PTX:  6 (potential) branch divergence @  PC=0x520 (_1.ptx:304) @%p5 bra $Lt_3_258;
GPGPU-Sim PTX:    immediate post dominator      @  PC=0x5c0 (_1.ptx:336) mov.u32 %r53, 0;
GPGPU-Sim PTX:  7 (potential) branch divergence @  PC=0x538 (_1.ptx:307) @%p6 bra $Lt_3_770;
GPGPU-Sim PTX:    immediate post dominator      @  PC=0x5c0 (_1.ptx:336) mov.u32 %r53, 0;
GPGPU-Sim PTX:  8 (potential) branch divergence @  PC=0x550 (_1.ptx:310) @%p7 bra $Lt_3_1026;
GPGPU-Sim PTX:    immediate post dominator      @  PC=0x5c0 (_1.ptx:336) mov.u32 %r53, 0;
GPGPU-Sim PTX:  9 (potential) branch divergence @  PC=0x568 (_1.ptx:313) @%p8 bra $Lt_3_1282;
GPGPU-Sim PTX:    immediate post dominator      @  PC=0x5c0 (_1.ptx:336) mov.u32 %r53, 0;
GPGPU-Sim PTX: 10 (potential) branch divergence @  PC=0x570 (_1.ptx:314) bra.uni $Lt_3_1538;
GPGPU-Sim PTX:    immediate post dominator      @  PC=0x5b8 (_1.ptx:333) mov.u32 %r8, 0;
GPGPU-Sim PTX: 11 (potential) branch divergence @  PC=0x580 (_1.ptx:318) bra.uni $Lt_3_514;
GPGPU-Sim PTX:    immediate post dominator      @  PC=0x5c0 (_1.ptx:336) mov.u32 %r53, 0;
GPGPU-Sim PTX: 12 (potential) branch divergence @  PC=0x590 (_1.ptx:322) bra.uni $Lt_3_514;
GPGPU-Sim PTX:    immediate post dominator      @  PC=0x5c0 (_1.ptx:336) mov.u32 %r53, 0;
GPGPU-Sim PTX: 13 (potential) branch divergence @  PC=0x5a0 (_1.ptx:326) bra.uni $Lt_3_514;
GPGPU-Sim PTX:    immediate post dominator      @  PC=0x5c0 (_1.ptx:336) mov.u32 %r53, 0;
GPGPU-Sim PTX: 14 (potential) branch divergence @  PC=0x5b0 (_1.ptx:330) bra.uni $Lt_3_514;
GPGPU-Sim PTX:    immediate post dominator      @  PC=0x5c0 (_1.ptx:336) mov.u32 %r53, 0;
GPGPU-Sim PTX: 15 (potential) branch divergence @  PC=0x5d0 (_1.ptx:338) @%p9 bra $Lt_3_37122;
GPGPU-Sim PTX:    immediate post dominator      @  PC=0x9e8 (_1.ptx:514) cvt.rn.f32.u32 %f25, %r54;
GPGPU-Sim PTX: 16 (potential) branch divergence @  PC=0x5f8 (_1.ptx:344) @%p10 bra $Lt_3_37634;
GPGPU-Sim PTX:    immediate post dominator      @  PC=0x658 (_1.ptx:360) sub.s32 %r18, %r18, 1;
GPGPU-Sim PTX: 17 (potential) branch divergence @  PC=0x668 (_1.ptx:363) bra.uni $Lt_3_2306;
GPGPU-Sim PTX:    immediate post dominator      @  PC=0x9e8 (_1.ptx:514) cvt.rn.f32.u32 %f25, %r54;
GPGPU-Sim PTX: 18 (potential) branch divergence @  PC=0x708 (_1.ptx:385) @%p11 bra $Lt_3_38402;
GPGPU-Sim PTX:    immediate post dominator      @  PC=0x7a0 (_1.ptx:417) add.u64 %rd22, %rd17, %rd18;
GPGPU-Sim PTX: 19 (potential) branch divergence @  PC=0x728 (_1.ptx:389) @%p12 bra $Lt_3_38914;
GPGPU-Sim PTX:    immediate post dominator      @  PC=0x778 (_1.ptx:407) cvt.s64.s32 %rd17, %r18;
GPGPU-Sim PTX: 20 (potential) branch divergence @  PC=0x758 (_1.ptx:398) bra.uni $Lt_3_38658;
GPGPU-Sim PTX:    immediate post dominator      @  PC=0x778 (_1.ptx:407) cvt.s64.s32 %rd17, %r18;
GPGPU-Sim PTX: 21 (potential) branch divergence @  PC=0x780 (_1.ptx:408) bra.uni $Lt_3_38146;
GPGPU-Sim PTX:    immediate post dominator      @  PC=0x7a0 (_1.ptx:417) add.u64 %rd22, %rd17, %rd18;
GPGPU-Sim PTX: 22 (potential) branch divergence @  PC=0x7c8 (_1.ptx:423) @%p14 bra $Lt_3_41218;
GPGPU-Sim PTX:    immediate post dominator      @  PC=0x9e8 (_1.ptx:514) cvt.rn.f32.u32 %f25, %r54;
GPGPU-Sim PTX: 23 (potential) branch divergence @  PC=0x7d0 (_1.ptx:424) @!%p13 bra $Lt_3_41218;
GPGPU-Sim PTX:    immediate post dominator      @  PC=0x9e8 (_1.ptx:514) cvt.rn.f32.u32 %f25, %r54;
GPGPU-Sim PTX: 24 (potential) branch divergence @  PC=0x868 (_1.ptx:446) @%p15 bra $Lt_3_39170;
GPGPU-Sim PTX:    immediate post dominator      @  PC=0x9e8 (_1.ptx:514) cvt.rn.f32.u32 %f25, %r54;
GPGPU-Sim PTX: 25 (potential) branch divergence @  PC=0x878 (_1.ptx:448) bra.uni $Lt_3_36354;
GPGPU-Sim PTX:    immediate post dominator      @  PC=0x928 (_1.ptx:483) sub.s32 %r94, %r76, %r72;
GPGPU-Sim PTX: 26 (potential) branch divergence @  PC=0x8b0 (_1.ptx:460) @%p16 bra $Lt_3_41730;
GPGPU-Sim PTX:    immediate post dominator      @  PC=0x9e8 (_1.ptx:514) cvt.rn.f32.u32 %f25, %r54;
GPGPU-Sim PTX: 27 (potential) branch divergence @  PC=0x8d8 (_1.ptx:465) @%p17 bra $L_3_33538;
GPGPU-Sim PTX:    immediate post dominator      @  PC=0x9e8 (_1.ptx:514) cvt.rn.f32.u32 %f25, %r54;
GPGPU-Sim PTX: 28 (potential) branch divergence @  PC=0x8e0 (_1.ptx:466) bra.uni $Lt_3_41218;
GPGPU-Sim PTX:    immediate post dominator      @  PC=0x8f8 (_1.ptx:473) @%p13 bra $Lt_3_36866;
GPGPU-Sim PTX: 29 (potential) branch divergence @  PC=0x8f8 (_1.ptx:473) @%p13 bra $Lt_3_36866;
GPGPU-Sim PTX:    immediate post dominator      @  PC=0x9e8 (_1.ptx:514) cvt.rn.f32.u32 %f25, %r54;
GPGPU-Sim PTX: 30 (potential) branch divergence @  PC=0x908 (_1.ptx:475) bra.uni $Lt_3_36354;
GPGPU-Sim PTX:    immediate post dominator      @  PC=0x928 (_1.ptx:483) sub.s32 %r94, %r76, %r72;
GPGPU-Sim PTX: 31 (potential) branch divergence @  PC=0x938 (_1.ptx:485) @%p20 bra $Lt_3_39938;
GPGPU-Sim PTX:    immediate post dominator      @  PC=0x9b0 (_1.ptx:504) mov.s32 %r19, %r94;
GPGPU-Sim PTX: 32 (potential) branch divergence @  PC=0xa78 (_1.ptx:533) @%p21 bra $Lt_3_35586;
GPGPU-Sim PTX:    immediate post dominator      @  PC=0xa80 (_1.ptx:536) exit;
GPGPU-Sim PTX: ... end of reconvergence points for _Z15mummergpuKernelP10MatchCoordPcPKiS3_ii
GPGPU-Sim PTX: ... done pre-decoding instructions for '_Z15mummergpuKernelP10MatchCoordPcPKiS3_ii'.
GPGPU-Sim PTX: allocating stack frame region for .local "__cuda_local_var_38157_19_non_const_cur_16" from 0x0 to 0x4
GPGPU-Sim PTX: allocating stack frame region for .local "__cuda_local_var_38172_22_non_const_prev_20" from 0x4 to 0x8
GPGPU-Sim PTX: allocating stack frame region for .local "__cuda_local_var_38171_16_non_const_node_32" from 0x10 to 0x20
GPGPU-Sim PTX: instruction assembly for function '_Z17mummergpuRCKernelP10MatchCoordPcPKiS3_ii'...   done.
GPGPU-Sim PTX: finding reconvergence points for '_Z17mummergpuRCKernelP10MatchCoordPcPKiS3_ii'...
GPGPU-Sim PTX: Finding dominators for '_Z17mummergpuRCKernelP10MatchCoordPcPKiS3_ii'...
GPGPU-Sim PTX: Finding immediate dominators for '_Z17mummergpuRCKernelP10MatchCoordPcPKiS3_ii'...
GPGPU-Sim PTX: Finding postdominators for '_Z17mummergpuRCKernelP10MatchCoordPcPKiS3_ii'...
GPGPU-Sim PTX: Finding immediate postdominators for '_Z17mummergpuRCKernelP10MatchCoordPcPKiS3_ii'...
GPGPU-Sim PTX: pre-decoding instructions for '_Z17mummergpuRCKernelP10MatchCoordPcPKiS3_ii'...
GPGPU-Sim PTX: reconvergence points for _Z17mummergpuRCKernelP10MatchCoordPcPKiS3_ii...
GPGPU-Sim PTX:  1 (potential) branch divergence @  PC=0xac0 (_1.ptx:564) @%p1 bra $Lt_4_39938;
GPGPU-Sim PTX:    immediate post dominator      @  PC=0x1520 (_1.ptx:1015) exit;
GPGPU-Sim PTX:  2 (potential) branch divergence @  PC=0xac8 (_1.ptx:565) bra.uni $LBB86__Z17mummergpuRCKernelP10MatchCoordPcPKiS3_ii;
GPGPU-Sim PTX:    immediate post dominator      @  PC=0x1520 (_1.ptx:1015) exit;
GPGPU-Sim PTX:  3 (potential) branch divergence @  PC=0xb70 (_1.ptx:591) @%p2 bra $LBB86__Z17mummergpuRCKernelP10MatchCoordPcPKiS3_ii;
GPGPU-Sim PTX:    immediate post dominator      @  PC=0x1520 (_1.ptx:1015) exit;
GPGPU-Sim PTX:  4 (potential) branch divergence @  PC=0xc10 (_1.ptx:613) @%p3 bra $Lt_4_41218;
GPGPU-Sim PTX:    immediate post dominator      @  PC=0xc58 (_1.ptx:625) sub.s32 %r33, %r12, %r17;
GPGPU-Sim PTX:  5 (potential) branch divergence @  PC=0xc88 (_1.ptx:632) @%p4 bra $Lt_4_7682;
GPGPU-Sim PTX:    immediate post dominator      @  PC=0xd50 (_1.ptx:671) mov.s32 %r41, %r40;
GPGPU-Sim PTX:  6 (potential) branch divergence @  PC=0xca0 (_1.ptx:635) @%p5 bra $Lt_4_7938;
GPGPU-Sim PTX:    immediate post dominator      @  PC=0xd50 (_1.ptx:671) mov.s32 %r41, %r40;
GPGPU-Sim PTX:  7 (potential) branch divergence @  PC=0xcb8 (_1.ptx:638) @%p6 bra $Lt_4_8194;
GPGPU-Sim PTX:    immediate post dominator      @  PC=0xd50 (_1.ptx:671) mov.s32 %r41, %r40;
GPGPU-Sim PTX:  8 (potential) branch divergence @  PC=0xcd0 (_1.ptx:641) @%p7 bra $Lt_4_8450;
GPGPU-Sim PTX:    immediate post dominator      @  PC=0xd50 (_1.ptx:671) mov.s32 %r41, %r40;
GPGPU-Sim PTX:  9 (potential) branch divergence @  PC=0xce8 (_1.ptx:644) @%p8 bra $Lt_4_8706;
GPGPU-Sim PTX:    immediate post dominator      @  PC=0xd50 (_1.ptx:671) mov.s32 %r41, %r40;
GPGPU-Sim PTX: 10 (potential) branch divergence @  PC=0xcf0 (_1.ptx:645) bra.uni $Lt_4_8962;
GPGPU-Sim PTX:    immediate post dominator      @  PC=0xd48 (_1.ptx:668) mov.s32 %r40, %r34;
GPGPU-Sim PTX: 11 (potential) branch divergence @  PC=0xd00 (_1.ptx:649) bra.uni $LDWendi__Z2rcc_184_29;
GPGPU-Sim PTX:    immediate post dominator      @  PC=0xd50 (_1.ptx:671) mov.s32 %r41, %r40;
GPGPU-Sim PTX: 12 (potential) branch divergence @  PC=0xd10 (_1.ptx:653) bra.uni $LDWendi__Z2rcc_184_29;
GPGPU-Sim PTX:    immediate post dominator      @  PC=0xd50 (_1.ptx:671) mov.s32 %r41, %r40;
GPGPU-Sim PTX: 13 (potential) branch divergence @  PC=0xd20 (_1.ptx:657) bra.uni $LDWendi__Z2rcc_184_29;
GPGPU-Sim PTX:    immediate post dominator      @  PC=0xd50 (_1.ptx:671) mov.s32 %r41, %r40;
GPGPU-Sim PTX: 14 (potential) branch divergence @  PC=0xd30 (_1.ptx:661) bra.uni $LDWendi__Z2rcc_184_29;
GPGPU-Sim PTX:    immediate post dominator      @  PC=0xd50 (_1.ptx:671) mov.s32 %r41, %r40;
GPGPU-Sim PTX: 15 (potential) branch divergence @  PC=0xd40 (_1.ptx:665) bra.uni $LDWendi__Z2rcc_184_29;
GPGPU-Sim PTX:    immediate post dominator      @  PC=0xd50 (_1.ptx:671) mov.s32 %r41, %r40;
GPGPU-Sim PTX: 16 (potential) branch divergence @  PC=0xd68 (_1.ptx:674) @%p9 bra $Lt_4_46338;
GPGPU-Sim PTX:    immediate post dominator      @  PC=0x1488 (_1.ptx:992) cvt.rn.f32.u32 %f25, %r61;
GPGPU-Sim PTX: 17 (potential) branch divergence @  PC=0xe10 (_1.ptx:699) @%p10 bra $Lt_4_258;
GPGPU-Sim PTX:    immediate post dominator      @  PC=0xeb0 (_1.ptx:731) mov.u32 %r60, 0;
GPGPU-Sim PTX: 18 (potential) branch divergence @  PC=0xe28 (_1.ptx:702) @%p11 bra $Lt_4_770;
GPGPU-Sim PTX:    immediate post dominator      @  PC=0xeb0 (_1.ptx:731) mov.u32 %r60, 0;
GPGPU-Sim PTX: 19 (potential) branch divergence @  PC=0xe40 (_1.ptx:705) @%p12 bra $Lt_4_1026;
GPGPU-Sim PTX:    immediate post dominator      @  PC=0xeb0 (_1.ptx:731) mov.u32 %r60, 0;
GPGPU-Sim PTX: 20 (potential) branch divergence @  PC=0xe58 (_1.ptx:708) @%p13 bra $Lt_4_1282;
GPGPU-Sim PTX:    immediate post dominator      @  PC=0xeb0 (_1.ptx:731) mov.u32 %r60, 0;
GPGPU-Sim PTX: 21 (potential) branch divergence @  PC=0xe60 (_1.ptx:709) bra.uni $Lt_4_1538;
GPGPU-Sim PTX:    immediate post dominator      @  PC=0xea8 (_1.ptx:728) mov.u32 %r16, 0;
GPGPU-Sim PTX: 22 (potential) branch divergence @  PC=0xe70 (_1.ptx:713) bra.uni $Lt_4_514;
GPGPU-Sim PTX:    immediate post dominator      @  PC=0xeb0 (_1.ptx:731) mov.u32 %r60, 0;
GPGPU-Sim PTX: 23 (potential) branch divergence @  PC=0xe80 (_1.ptx:717) bra.uni $Lt_4_514;
GPGPU-Sim PTX:    immediate post dominator      @  PC=0xeb0 (_1.ptx:731) mov.u32 %r60, 0;
GPGPU-Sim PTX: 24 (potential) branch divergence @  PC=0xe90 (_1.ptx:721) bra.uni $Lt_4_514;
GPGPU-Sim PTX:    immediate post dominator      @  PC=0xeb0 (_1.ptx:731) mov.u32 %r60, 0;
GPGPU-Sim PTX: 25 (potential) branch divergence @  PC=0xea0 (_1.ptx:725) bra.uni $Lt_4_514;
GPGPU-Sim PTX:    immediate post dominator      @  PC=0xeb0 (_1.ptx:731) mov.u32 %r60, 0;
GPGPU-Sim PTX: 26 (potential) branch divergence @  PC=0xec0 (_1.ptx:733) @%p14 bra $Lt_4_42498;
GPGPU-Sim PTX:    immediate post dominator      @  PC=0x1488 (_1.ptx:992) cvt.rn.f32.u32 %f25, %r61;
GPGPU-Sim PTX: 27 (potential) branch divergence @  PC=0xee8 (_1.ptx:739) @%p15 bra $Lt_4_43010;
GPGPU-Sim PTX:    immediate post dominator      @  PC=0xf38 (_1.ptx:753) sub.s32 %r17, %r17, 1;
GPGPU-Sim PTX: 28 (potential) branch divergence @  PC=0xf48 (_1.ptx:756) bra.uni $Lt_4_2306;
GPGPU-Sim PTX:    immediate post dominator      @  PC=0x1488 (_1.ptx:992) cvt.rn.f32.u32 %f25, %r61;
GPGPU-Sim PTX: 29 (potential) branch divergence @  PC=0xfe8 (_1.ptx:778) @%p16 bra $Lt_4_43778;
GPGPU-Sim PTX:    immediate post dominator      @  PC=0x1070 (_1.ptx:807) sub.s32 %r86, %r12, %r17;
GPGPU-Sim PTX: 30 (potential) branch divergence @  PC=0x1008 (_1.ptx:782) @%p17 bra $Lt_4_44290;
GPGPU-Sim PTX:    immediate post dominator      @  PC=0x1070 (_1.ptx:807) sub.s32 %r86, %r12, %r17;
GPGPU-Sim PTX: 31 (potential) branch divergence @  PC=0x1038 (_1.ptx:791) bra.uni $Lt_4_43522;
GPGPU-Sim PTX:    immediate post dominator      @  PC=0x1070 (_1.ptx:807) sub.s32 %r86, %r12, %r17;
GPGPU-Sim PTX: 32 (potential) branch divergence @  PC=0x1058 (_1.ptx:799) bra.uni $Lt_4_43522;
GPGPU-Sim PTX:    immediate post dominator      @  PC=0x1070 (_1.ptx:807) sub.s32 %r86, %r12, %r17;
GPGPU-Sim PTX: 33 (potential) branch divergence @  PC=0x10a0 (_1.ptx:814) @%p18 bra $Lt_4_5378;
GPGPU-Sim PTX:    immediate post dominator      @  PC=0x1168 (_1.ptx:853) mov.s32 %r41, %r93;
GPGPU-Sim PTX: 34 (potential) branch divergence @  PC=0x10b8 (_1.ptx:817) @%p19 bra $Lt_4_5634;
GPGPU-Sim PTX:    immediate post dominator      @  PC=0x1168 (_1.ptx:853) mov.s32 %r41, %r93;
GPGPU-Sim PTX: 35 (potential) branch divergence @  PC=0x10d0 (_1.ptx:820) @%p20 bra $Lt_4_5890;
GPGPU-Sim PTX:    immediate post dominator      @  PC=0x1168 (_1.ptx:853) mov.s32 %r41, %r93;
GPGPU-Sim PTX: 36 (potential) branch divergence @  PC=0x10e8 (_1.ptx:823) @%p21 bra $Lt_4_6146;
GPGPU-Sim PTX:    immediate post dominator      @  PC=0x1168 (_1.ptx:853) mov.s32 %r41, %r93;
GPGPU-Sim PTX: 37 (potential) branch divergence @  PC=0x1100 (_1.ptx:826) @%p22 bra $Lt_4_6402;
GPGPU-Sim PTX:    immediate post dominator      @  PC=0x1168 (_1.ptx:853) mov.s32 %r41, %r93;
GPGPU-Sim PTX: 38 (potential) branch divergence @  PC=0x1108 (_1.ptx:827) bra.uni $Lt_4_6658;
GPGPU-Sim PTX:    immediate post dominator      @  PC=0x1160 (_1.ptx:850) mov.s32 %r93, %r87;
GPGPU-Sim PTX: 39 (potential) branch divergence @  PC=0x1118 (_1.ptx:831) bra.uni $LDWendi__Z2rcc_184_20;
GPGPU-Sim PTX:    immediate post dominator      @  PC=0x1168 (_1.ptx:853) mov.s32 %r41, %r93;
GPGPU-Sim PTX: 40 (potential) branch divergence @  PC=0x1128 (_1.ptx:835) bra.uni $LDWendi__Z2rcc_184_20;
GPGPU-Sim PTX:    immediate post dominator      @  PC=0x1168 (_1.ptx:853) mov.s32 %r41, %r93;
GPGPU-Sim PTX: 41 (potential) branch divergence @  PC=0x1138 (_1.ptx:839) bra.uni $LDWendi__Z2rcc_184_20;
GPGPU-Sim PTX:    immediate post dominator      @  PC=0x1168 (_1.ptx:853) mov.s32 %r41, %r93;
GPGPU-Sim PTX: 42 (potential) branch divergence @  PC=0x1148 (_1.ptx:843) bra.uni $LDWendi__Z2rcc_184_20;
GPGPU-Sim PTX:    immediate post dominator      @  PC=0x1168 (_1.ptx:853) mov.s32 %r41, %r93;
GPGPU-Sim PTX: 43 (potential) branch divergence @  PC=0x1158 (_1.ptx:847) bra.uni $LDWendi__Z2rcc_184_20;
GPGPU-Sim PTX:    immediate post dominator      @  PC=0x1168 (_1.ptx:853) mov.s32 %r41, %r93;
GPGPU-Sim PTX: 44 (potential) branch divergence @  PC=0x1188 (_1.ptx:858) @%p24 bra $Lt_4_46594;
GPGPU-Sim PTX:    immediate post dominator      @  PC=0x1488 (_1.ptx:992) cvt.rn.f32.u32 %f25, %r61;
GPGPU-Sim PTX: 45 (potential) branch divergence @  PC=0x1190 (_1.ptx:859) @!%p23 bra $Lt_4_46594;
GPGPU-Sim PTX:    immediate post dominator      @  PC=0x1488 (_1.ptx:992) cvt.rn.f32.u32 %f25, %r61;
GPGPU-Sim PTX: 46 (potential) branch divergence @  PC=0x1228 (_1.ptx:881) @%p25 bra $Lt_4_44546;
GPGPU-Sim PTX:    immediate post dominator      @  PC=0x1488 (_1.ptx:992) cvt.rn.f32.u32 %f25, %r61;
GPGPU-Sim PTX: 47 (potential) branch divergence @  PC=0x1238 (_1.ptx:883) bra.uni $Lt_4_41730;
GPGPU-Sim PTX:    immediate post dominator      @  PC=0x13d0 (_1.ptx:962) sub.s32 %r117, %r83, %r79;
GPGPU-Sim PTX: 48 (potential) branch divergence @  PC=0x1280 (_1.ptx:897) @%p26 bra $Lt_4_3074;
GPGPU-Sim PTX:    immediate post dominator      @  PC=0x1348 (_1.ptx:936) mov.s32 %r41, %r114;
GPGPU-Sim PTX: 49 (potential) branch divergence @  PC=0x1298 (_1.ptx:900) @%p27 bra $Lt_4_3330;
GPGPU-Sim PTX:    immediate post dominator      @  PC=0x1348 (_1.ptx:936) mov.s32 %r41, %r114;
GPGPU-Sim PTX: 50 (potential) branch divergence @  PC=0x12b0 (_1.ptx:903) @%p28 bra $Lt_4_3586;
GPGPU-Sim PTX:    immediate post dominator      @  PC=0x1348 (_1.ptx:936) mov.s32 %r41, %r114;
GPGPU-Sim PTX: 51 (potential) branch divergence @  PC=0x12c8 (_1.ptx:906) @%p29 bra $Lt_4_3842;
GPGPU-Sim PTX:    immediate post dominator      @  PC=0x1348 (_1.ptx:936) mov.s32 %r41, %r114;
GPGPU-Sim PTX: 52 (potential) branch divergence @  PC=0x12e0 (_1.ptx:909) @%p30 bra $Lt_4_4098;
GPGPU-Sim PTX:    immediate post dominator      @  PC=0x1348 (_1.ptx:936) mov.s32 %r41, %r114;
GPGPU-Sim PTX: 53 (potential) branch divergence @  PC=0x12e8 (_1.ptx:910) bra.uni $Lt_4_4354;
GPGPU-Sim PTX:    immediate post dominator      @  PC=0x1340 (_1.ptx:933) mov.s32 %r114, %r108;
GPGPU-Sim PTX: 54 (potential) branch divergence @  PC=0x12f8 (_1.ptx:914) bra.uni $LDWendi__Z2rcc_184_11;
GPGPU-Sim PTX:    immediate post dominator      @  PC=0x1348 (_1.ptx:936) mov.s32 %r41, %r114;
GPGPU-Sim PTX: 55 (potential) branch divergence @  PC=0x1308 (_1.ptx:918) bra.uni $LDWendi__Z2rcc_184_11;
GPGPU-Sim PTX:    immediate post dominator      @  PC=0x1348 (_1.ptx:936) mov.s32 %r41, %r114;
GPGPU-Sim PTX: 56 (potential) branch divergence @  PC=0x1318 (_1.ptx:922) bra.uni $LDWendi__Z2rcc_184_11;
GPGPU-Sim PTX:    immediate post dominator      @  PC=0x1348 (_1.ptx:936) mov.s32 %r41, %r114;
GPGPU-Sim PTX: 57 (potential) branch divergence @  PC=0x1328 (_1.ptx:926) bra.uni $LDWendi__Z2rcc_184_11;
GPGPU-Sim PTX:    immediate post dominator      @  PC=0x1348 (_1.ptx:936) mov.s32 %r41, %r114;
GPGPU-Sim PTX: 58 (potential) branch divergence @  PC=0x1338 (_1.ptx:930) bra.uni $LDWendi__Z2rcc_184_11;
GPGPU-Sim PTX:    immediate post dominator      @  PC=0x1348 (_1.ptx:936) mov.s32 %r41, %r114;
GPGPU-Sim PTX: 59 (potential) branch divergence @  PC=0x1358 (_1.ptx:939) @%p31 bra $Lt_4_47106;
GPGPU-Sim PTX:    immediate post dominator      @  PC=0x1488 (_1.ptx:992) cvt.rn.f32.u32 %f25, %r61;
GPGPU-Sim PTX: 60 (potential) branch divergence @  PC=0x1380 (_1.ptx:944) @%p32 bra $L_4_38914;
GPGPU-Sim PTX:    immediate post dominator      @  PC=0x1488 (_1.ptx:992) cvt.rn.f32.u32 %f25, %r61;
GPGPU-Sim PTX: 61 (potential) branch divergence @  PC=0x1388 (_1.ptx:945) bra.uni $Lt_4_46594;
GPGPU-Sim PTX:    immediate post dominator      @  PC=0x13a0 (_1.ptx:952) @%p23 bra $Lt_4_42242;
GPGPU-Sim PTX: 62 (potential) branch divergence @  PC=0x13a0 (_1.ptx:952) @%p23 bra $Lt_4_42242;
GPGPU-Sim PTX:    immediate post dominator      @  PC=0x1488 (_1.ptx:992) cvt.rn.f32.u32 %f25, %r61;
GPGPU-Sim PTX: 63 (potential) branch divergence @  PC=0x13b0 (_1.ptx:954) bra.uni $Lt_4_41730;
GPGPU-Sim PTX:    immediate post dominator      @  PC=0x13d0 (_1.ptx:962) sub.s32 %r117, %r83, %r79;
GPGPU-Sim PTX: 64 (potential) branch divergence @  PC=0x13e0 (_1.ptx:964) @%p35 bra $Lt_4_45314;
GPGPU-Sim PTX:    immediate post dominator      @  PC=0x1450 (_1.ptx:982) mov.s32 %r18, %r117;
GPGPU-Sim PTX: 65 (potential) branch divergence @  PC=0x1518 (_1.ptx:1012) @%p36 bra $Lt_4_40962;
GPGPU-Sim PTX:    immediate post dominator      @  PC=0x1520 (_1.ptx:1015) exit;
GPGPU-Sim PTX: ... end of reconvergence points for _Z17mummergpuRCKernelP10MatchCoordPcPKiS3_ii
GPGPU-Sim PTX: ... done pre-decoding instructions for '_Z17mummergpuRCKernelP10MatchCoordPcPKiS3_ii'.
GPGPU-Sim PTX: finished parsing EMBEDDED .ptx file _1.ptx
Adding _cuobjdump_2.ptx with cubin handle 1
GPGPU-Sim PTX: extracting embedded .ptx to temporary file "_ptx_IgrO12"
Running: cat _ptx_IgrO12 | sed 's/.version 1.5/.version 1.4/' | sed 's/, texmode_independent//' | sed 's/\(\.extern \.const\[1\] .b8 \w\+\)\[\]/\1\[1\]/' | sed 's/const\[.\]/const\[0\]/g' > _ptx2_w8Ts3L
GPGPU-Sim PTX: generating ptxinfo using "$CUDA_INSTALL_PATH/bin/ptxas --gpu-name=sm_20 -v _ptx2_w8Ts3L --output-file  /dev/null 2> _ptx_IgrO12info"
GPGPU-Sim PTX: Kernel '_Z17mummergpuRCKernelP10MatchCoordPcPKiS3_ii' : regs=18, lmem=0, smem=0, cmem=72
GPGPU-Sim PTX: Kernel '_Z15mummergpuKernelP10MatchCoordPcPKiS3_ii' : regs=26, lmem=0, smem=0, cmem=72
GPGPU-Sim PTX: removing ptxinfo using "rm -f _ptx_IgrO12 _ptx2_w8Ts3L _ptx_IgrO12info"
GPGPU-Sim PTX: loading globals with explicit initializers... 
GPGPU-Sim PTX: finished loading globals (0 bytes total).
GPGPU-Sim PTX: loading constants with explicit initializers...  done.
GPGPU-Sim PTX: __cudaRegisterFunction _Z15mummergpuKernelP10MatchCoordPcPKiS3_ii : hostFun 0x0x4096f0, fat_cubin_handle = 1
GPGPU-Sim PTX: in __cudaRegisterTexture:
GPGPU-Sim PTX:   int dim = 2
GPGPU-Sim PTX:   int norm = 0
GPGPU-Sim PTX:   int ext = 0
GPGPU-Sim PTX:   Execution warning: Not finished implementing "void __cudaRegisterTexture(void**, const textureReference*, const void**, const char*, int, int, int)"
GPGPU-Sim PTX: in __cudaRegisterTexture:
GPGPU-Sim PTX:   int dim = 2
GPGPU-Sim PTX:   int norm = 0
GPGPU-Sim PTX:   int ext = 0
GPGPU-Sim PTX:   Execution warning: Not finished implementing "void __cudaRegisterTexture(void**, const textureReference*, const void**, const char*, int, int, int)"
GPGPU-Sim PTX: in __cudaRegisterTexture:
GPGPU-Sim PTX:   int dim = 2
GPGPU-Sim PTX:   int norm = 0
GPGPU-Sim PTX:   int ext = 0
GPGPU-Sim PTX:   Execution warning: Not finished implementing "void __cudaRegisterTexture(void**, const textureReference*, const void**, const char*, int, int, int)"
GPGPU-Sim PTX: cudaMallocArray: devPtr32 = -2145733120
GPGPU-Sim PTX: cudaMemcpyToArray
GPGPU-Sim PTX: in cudaBindTextureToArray: 0x637aa0 0x32c9860
GPGPU-Sim PTX:   devPtr32 = 801ab600
GPGPU-Sim PTX:   Name corresponding to textureReference: reftex
GPGPU-Sim PTX:   Texture Normalized? = 0
GPGPU-Sim PTX:   texel size = 1
GPGPU-Sim PTX:   texture cache linesize = 128
GPGPU-Sim PTX:   Tx = 16; Ty = 8, Tx_numbits = 4, Ty_numbits = 3
GPGPU-Sim PTX:   Texel size = 1 bytes; texel_size_numbits = 0
GPGPU-Sim PTX:   Binding texture to array starting at devPtr32 = 0x801ab600
GPGPU-Sim PTX:   Texel size = 1 bytes
GPGPU-Sim PTX: cudaMallocArray: devPtr32 = -2144029184
GPGPU-Sim PTX: cudaMemcpyToArray
GPGPU-Sim PTX: in cudaBindTextureToArray: 0x6379a0 0x310e060
GPGPU-Sim PTX:   devPtr32 = 8034b600
GPGPU-Sim PTX:   Name corresponding to textureReference: nodetex
GPGPU-Sim PTX:   Texture Normalized? = 0
GPGPU-Sim PTX:   texel size = 16
GPGPU-Sim PTX:   texture cache linesize = 128
GPGPU-Sim PTX:   Tx = 4; Ty = 2, Tx_numbits = 2, Ty_numbits = 1
GPGPU-Sim PTX:   Texel size = 16 bytes; texel_size_numbits = 4
GPGPU-Sim PTX:   Binding texture to array starting at devPtr32 = 0x8034b600
GPGPU-Sim PTX:   Texel size = 16 bytes
GPGPU-Sim PTX: cudaMallocArray: devPtr32 = -2104838656
GPGPU-Sim PTX: cudaMemcpyToArray
GPGPU-Sim PTX: in cudaBindTextureToArray: 0x637a20 0x32c9920
GPGPU-Sim PTX:   devPtr32 = 828ab600
GPGPU-Sim PTX:   Name corresponding to textureReference: childrentex
GPGPU-Sim PTX:   Texture Normalized? = 0
GPGPU-Sim PTX:   texel size = 16
GPGPU-Sim PTX:   texture cache linesize = 128
GPGPU-Sim PTX:   Tx = 4; Ty = 2, Tx_numbits = 2, Ty_numbits = 1
GPGPU-Sim PTX:   Texel size = 16 bytes; texel_size_numbits = 4
GPGPU-Sim PTX:   Binding texture to array starting at devPtr32 = 0x828ab600
GPGPU-Sim PTX:   Texel size = 16 bytes

GPGPU-Sim PTX: cudaLaunch for 0x0x4096f0 (mode=performance simulation) on stream 0
GPGPU-Sim PTX: pushing kernel '_Z15mummergpuKernelP10MatchCoordPcPKiS3_ii' to stream 0, gridDim= (196,1,1) blockDim = (256,1,1) 
kernel '_Z15mummergpuKernelP10MatchCoordPcPKiS3_ii' transfer to GPU hardware scheduler
GPGPU-Sim uArch: Shader 1 bind to kernel 1 '_Z15mummergpuKernelP10MatchCoordPcPKiS3_ii'
GPGPU-Sim uArch: CTA/core = 4, limited by: regs
GPGPU-Sim uArch: core:  1, cta: 0 initialized @(1,0)
GPGPU-Sim uArch: Shader 2 bind to kernel 1 '_Z15mummergpuKernelP10MatchCoordPcPKiS3_ii'
GPGPU-Sim uArch: core:  2, cta: 0 initialized @(1,0)
GPGPU-Sim uArch: Shader 3 bind to kernel 1 '_Z15mummergpuKernelP10MatchCoordPcPKiS3_ii'
GPGPU-Sim uArch: core:  3, cta: 0 initialized @(1,0)
GPGPU-Sim uArch: Shader 4 bind to kernel 1 '_Z15mummergpuKernelP10MatchCoordPcPKiS3_ii'
GPGPU-Sim uArch: core:  4, cta: 0 initialized @(1,0)
GPGPU-Sim uArch: Shader 5 bind to kernel 1 '_Z15mummergpuKernelP10MatchCoordPcPKiS3_ii'
GPGPU-Sim uArch: core:  5, cta: 0 initialized @(1,0)
GPGPU-Sim uArch: Shader 6 bind to kernel 1 '_Z15mummergpuKernelP10MatchCoordPcPKiS3_ii'
GPGPU-Sim uArch: core:  6, cta: 0 initialized @(1,0)
GPGPU-Sim uArch: Shader 7 bind to kernel 1 '_Z15mummergpuKernelP10MatchCoordPcPKiS3_ii'
GPGPU-Sim uArch: core:  7, cta: 0 initialized @(1,0)
GPGPU-Sim uArch: Shader 8 bind to kernel 1 '_Z15mummergpuKernelP10MatchCoordPcPKiS3_ii'
GPGPU-Sim uArch: core:  8, cta: 0 initialized @(1,0)
GPGPU-Sim uArch: Shader 9 bind to kernel 1 '_Z15mummergpuKernelP10MatchCoordPcPKiS3_ii'
GPGPU-Sim uArch: core:  9, cta: 0 initialized @(1,0)
GPGPU-Sim uArch: Shader 10 bind to kernel 1 '_Z15mummergpuKernelP10MatchCoordPcPKiS3_ii'
GPGPU-Sim uArch: core: 10, cta: 0 initialized @(1,0)
GPGPU-Sim uArch: Shader 11 bind to kernel 1 '_Z15mummergpuKernelP10MatchCoordPcPKiS3_ii'
GPGPU-Sim uArch: core: 11, cta: 0 initialized @(1,0)
GPGPU-Sim uArch: Shader 12 bind to kernel 1 '_Z15mummergpuKernelP10MatchCoordPcPKiS3_ii'
GPGPU-Sim uArch: core: 12, cta: 0 initialized @(1,0)
GPGPU-Sim uArch: Shader 13 bind to kernel 1 '_Z15mummergpuKernelP10MatchCoordPcPKiS3_ii'
GPGPU-Sim uArch: core: 13, cta: 0 initialized @(1,0)
GPGPU-Sim uArch: Shader 14 bind to kernel 1 '_Z15mummergpuKernelP10MatchCoordPcPKiS3_ii'
GPGPU-Sim uArch: core: 14, cta: 0 initialized @(1,0)
GPGPU-Sim uArch: Shader 0 bind to kernel 1 '_Z15mummergpuKernelP10MatchCoordPcPKiS3_ii'
GPGPU-Sim uArch: core:  0, cta: 0 initialized @(1,0)
GPGPU-Sim uArch: core:  1, cta: 1 initialized @(2,0)
GPGPU-Sim uArch: core:  2, cta: 1 initialized @(2,0)
GPGPU-Sim uArch: core:  3, cta: 1 initialized @(2,0)
GPGPU-Sim uArch: core:  4, cta: 1 initialized @(2,0)
GPGPU-Sim uArch: core:  5, cta: 1 initialized @(2,0)
GPGPU-Sim uArch: core:  6, cta: 1 initialized @(2,0)
GPGPU-Sim uArch: core:  7, cta: 1 initialized @(2,0)
GPGPU-Sim uArch: core:  8, cta: 1 initialized @(2,0)
GPGPU-Sim uArch: core:  9, cta: 1 initialized @(2,0)
GPGPU-Sim uArch: core: 10, cta: 1 initialized @(2,0)
GPGPU-Sim uArch: core: 11, cta: 1 initialized @(2,0)
GPGPU-Sim uArch: core: 12, cta: 1 initialized @(2,0)
GPGPU-Sim uArch: core: 13, cta: 1 initialized @(2,0)
GPGPU-Sim uArch: core: 14, cta: 1 initialized @(2,0)
GPGPU-Sim uArch: core:  0, cta: 1 initialized @(2,0)
GPGPU-Sim uArch: core:  1, cta: 2 initialized @(3,0)
GPGPU-Sim uArch: core:  2, cta: 2 initialized @(3,0)
GPGPU-Sim uArch: core:  3, cta: 2 initialized @(3,0)
GPGPU-Sim uArch: core:  4, cta: 2 initialized @(3,0)
GPGPU-Sim uArch: core:  5, cta: 2 initialized @(3,0)
GPGPU-Sim uArch: core:  6, cta: 2 initialized @(3,0)
GPGPU-Sim uArch: core:  7, cta: 2 initialized @(3,0)
GPGPU-Sim uArch: core:  8, cta: 2 initialized @(3,0)
GPGPU-Sim uArch: core:  9, cta: 2 initialized @(3,0)
GPGPU-Sim uArch: core: 10, cta: 2 initialized @(3,0)
GPGPU-Sim uArch: core: 11, cta: 2 initialized @(3,0)
GPGPU-Sim uArch: core: 12, cta: 2 initialized @(3,0)
GPGPU-Sim uArch: core: 13, cta: 2 initialized @(3,0)
GPGPU-Sim uArch: core: 14, cta: 2 initialized @(3,0)
GPGPU-Sim uArch: core:  0, cta: 2 initialized @(3,0)
GPGPU-Sim uArch: core:  1, cta: 3 initialized @(4,0)
GPGPU-Sim uArch: core:  2, cta: 3 initialized @(4,0)
GPGPU-Sim uArch: core:  3, cta: 3 initialized @(4,0)
GPGPU-Sim uArch: core:  4, cta: 3 initialized @(4,0)
GPGPU-Sim uArch: core:  5, cta: 3 initialized @(4,0)
GPGPU-Sim uArch: core:  6, cta: 3 initialized @(4,0)
GPGPU-Sim uArch: core:  7, cta: 3 initialized @(4,0)
GPGPU-Sim uArch: core:  8, cta: 3 initialized @(4,0)
GPGPU-Sim uArch: core:  9, cta: 3 initialized @(4,0)
GPGPU-Sim uArch: core: 10, cta: 3 initialized @(4,0)
GPGPU-Sim uArch: core: 11, cta: 3 initialized @(4,0)
GPGPU-Sim uArch: core: 12, cta: 3 initialized @(4,0)
GPGPU-Sim uArch: core: 13, cta: 3 initialized @(4,0)
GPGPU-Sim uArch: core: 14, cta: 3 initialized @(4,0)
GPGPU-Sim uArch: core:  0, cta: 3 initialized @(4,0)
GPGPU-Sim uArch: cycles simulated: 500  inst.: 30720 (ipc=61.4) sim_rate=2048 (inst/sec) elapsed = 0:0:00:15 / Wed May 13 00:29:45 2015
GPGPU-Sim PTX: 100000 instructions simulated : ctaid=(1,0,0) tid=(191,0,0)
GPGPU-Sim uArch: cycles simulated: 1000  inst.: 135136 (ipc=135.1) sim_rate=7949 (inst/sec) elapsed = 0:0:00:17 / Wed May 13 00:29:47 2015
GPGPU-Sim PTX: 200000 instructions simulated : ctaid=(40,0,0) tid=(127,0,0)
GPGPU-Sim uArch: cycles simulated: 1500  inst.: 246016 (ipc=164.0) sim_rate=12300 (inst/sec) elapsed = 0:0:00:20 / Wed May 13 00:29:50 2015
GPGPU-Sim PTX: 300000 instructions simulated : ctaid=(3,0,0) tid=(191,0,0)
GPGPU-Sim PTX: 400000 instructions simulated : ctaid=(33,0,0) tid=(191,0,0)
GPGPU-Sim uArch: cycles simulated: 2000  inst.: 399872 (ipc=199.9) sim_rate=17385 (inst/sec) elapsed = 0:0:00:23 / Wed May 13 00:29:53 2015
GPGPU-Sim PTX: 500000 instructions simulated : ctaid=(8,0,0) tid=(255,0,0)
GPGPU-Sim PTX: 600000 instructions simulated : ctaid=(43,0,0) tid=(223,0,0)
GPGPU-Sim uArch: cycles simulated: 2500  inst.: 634336 (ipc=253.7) sim_rate=23493 (inst/sec) elapsed = 0:0:00:27 / Wed May 13 00:29:57 2015
GPGPU-Sim PTX: 700000 instructions simulated : ctaid=(33,0,0) tid=(63,0,0)
GPGPU-Sim uArch: cycles simulated: 3000  inst.: 753568 (ipc=251.2) sim_rate=25985 (inst/sec) elapsed = 0:0:00:29 / Wed May 13 00:29:59 2015
GPGPU-Sim PTX: 800000 instructions simulated : ctaid=(53,0,0) tid=(223,0,0)
GPGPU-Sim PTX: 900000 instructions simulated : ctaid=(43,0,0) tid=(255,0,0)
GPGPU-Sim uArch: cycles simulated: 3500  inst.: 910560 (ipc=260.2) sim_rate=29372 (inst/sec) elapsed = 0:0:00:31 / Wed May 13 00:30:01 2015
GPGPU-Sim uArch: cycles simulated: 4000  inst.: 920128 (ipc=230.0) sim_rate=27882 (inst/sec) elapsed = 0:0:00:33 / Wed May 13 00:30:03 2015
GPGPU-Sim PTX: 1000000 instructions simulated : ctaid=(9,0,0) tid=(159,0,0)
GPGPU-Sim uArch: cycles simulated: 4500  inst.: 975072 (ipc=216.7) sim_rate=26353 (inst/sec) elapsed = 0:0:00:37 / Wed May 13 00:30:07 2015
GPGPU-Sim uArch: cycles simulated: 5000  inst.: 1024544 (ipc=204.9) sim_rate=25613 (inst/sec) elapsed = 0:0:00:40 / Wed May 13 00:30:10 2015
GPGPU-Sim PTX: 1100000 instructions simulated : ctaid=(41,0,0) tid=(47,0,0)
GPGPU-Sim uArch: cycles simulated: 5500  inst.: 1073767 (ipc=195.2) sim_rate=24971 (inst/sec) elapsed = 0:0:00:43 / Wed May 13 00:30:13 2015
GPGPU-Sim PTX: 1200000 instructions simulated : ctaid=(8,0,0) tid=(23,0,0)
GPGPU-Sim uArch: cycles simulated: 6000  inst.: 1171185 (ipc=195.2) sim_rate=24918 (inst/sec) elapsed = 0:0:00:47 / Wed May 13 00:30:17 2015
GPGPU-Sim PTX: 1300000 instructions simulated : ctaid=(24,0,0) tid=(172,0,0)
GPGPU-Sim uArch: cycles simulated: 6500  inst.: 1325441 (ipc=203.9) sim_rate=26508 (inst/sec) elapsed = 0:0:00:50 / Wed May 13 00:30:20 2015
GPGPU-Sim PTX: 1400000 instructions simulated : ctaid=(16,0,0) tid=(175,0,0)
GPGPU-Sim PTX: 1500000 instructions simulated : ctaid=(56,0,0) tid=(47,0,0)
GPGPU-Sim uArch: cycles simulated: 7000  inst.: 1460984 (ipc=208.7) sim_rate=28095 (inst/sec) elapsed = 0:0:00:52 / Wed May 13 00:30:22 2015
GPGPU-Sim PTX: 1600000 instructions simulated : ctaid=(44,0,0) tid=(75,0,0)
GPGPU-Sim uArch: cycles simulated: 7500  inst.: 1601432 (ipc=213.5) sim_rate=28597 (inst/sec) elapsed = 0:0:00:56 / Wed May 13 00:30:26 2015
GPGPU-Sim uArch: cycles simulated: 8000  inst.: 1619800 (ipc=202.5) sim_rate=27927 (inst/sec) elapsed = 0:0:00:58 / Wed May 13 00:30:28 2015
GPGPU-Sim PTX: 1700000 instructions simulated : ctaid=(34,0,0) tid=(171,0,0)
GPGPU-Sim uArch: cycles simulated: 8500  inst.: 1647192 (ipc=193.8) sim_rate=27003 (inst/sec) elapsed = 0:0:01:01 / Wed May 13 00:30:31 2015
GPGPU-Sim PTX: 1800000 instructions simulated : ctaid=(57,0,0) tid=(171,0,0)
GPGPU-Sim uArch: cycles simulated: 9000  inst.: 1720952 (ipc=191.2) sim_rate=26889 (inst/sec) elapsed = 0:0:01:04 / Wed May 13 00:30:34 2015
GPGPU-Sim uArch: cycles simulated: 9500  inst.: 1748600 (ipc=184.1) sim_rate=26098 (inst/sec) elapsed = 0:0:01:07 / Wed May 13 00:30:37 2015
GPGPU-Sim uArch: cycles simulated: 10000  inst.: 1805816 (ipc=180.6) sim_rate=25797 (inst/sec) elapsed = 0:0:01:10 / Wed May 13 00:30:40 2015
GPGPU-Sim PTX: 1900000 instructions simulated : ctaid=(28,0,0) tid=(75,0,0)
GPGPU-Sim uArch: cycles simulated: 10500  inst.: 1863839 (ipc=177.5) sim_rate=25532 (inst/sec) elapsed = 0:0:01:13 / Wed May 13 00:30:43 2015
GPGPU-Sim PTX: 2000000 instructions simulated : ctaid=(26,0,0) tid=(9,0,0)
GPGPU-Sim uArch: cycles simulated: 11000  inst.: 1953924 (ipc=177.6) sim_rate=25375 (inst/sec) elapsed = 0:0:01:17 / Wed May 13 00:30:47 2015
GPGPU-Sim PTX: 2100000 instructions simulated : ctaid=(18,0,0) tid=(70,0,0)
GPGPU-Sim uArch: cycles simulated: 11500  inst.: 2042095 (ipc=177.6) sim_rate=25526 (inst/sec) elapsed = 0:0:01:20 / Wed May 13 00:30:50 2015
GPGPU-Sim PTX: 2200000 instructions simulated : ctaid=(35,0,0) tid=(50,0,0)
GPGPU-Sim uArch: cycles simulated: 12000  inst.: 2174040 (ipc=181.2) sim_rate=26193 (inst/sec) elapsed = 0:0:01:23 / Wed May 13 00:30:53 2015
GPGPU-Sim PTX: 2300000 instructions simulated : ctaid=(46,0,0) tid=(119,0,0)
GPGPU-Sim PTX: 2400000 instructions simulated : ctaid=(25,0,0) tid=(151,0,0)
GPGPU-Sim uArch: cycles simulated: 12500  inst.: 2331967 (ipc=186.6) sim_rate=26804 (inst/sec) elapsed = 0:0:01:27 / Wed May 13 00:30:57 2015
GPGPU-Sim PTX: 2500000 instructions simulated : ctaid=(48,0,0) tid=(164,0,0)
GPGPU-Sim uArch: cycles simulated: 13000  inst.: 2493285 (ipc=191.8) sim_rate=27703 (inst/sec) elapsed = 0:0:01:30 / Wed May 13 00:31:00 2015
GPGPU-Sim PTX: 2600000 instructions simulated : ctaid=(55,0,0) tid=(240,0,0)
GPGPU-Sim PTX: 2700000 instructions simulated : ctaid=(57,0,0) tid=(163,0,0)
GPGPU-Sim uArch: cycles simulated: 13500  inst.: 2612107 (ipc=193.5) sim_rate=28087 (inst/sec) elapsed = 0:0:01:33 / Wed May 13 00:31:03 2015
GPGPU-Sim PTX: 2800000 instructions simulated : ctaid=(56,0,0) tid=(96,0,0)
GPGPU-Sim uArch: cycles simulated: 14000  inst.: 2712077 (ipc=193.7) sim_rate=27959 (inst/sec) elapsed = 0:0:01:37 / Wed May 13 00:31:07 2015
GPGPU-Sim uArch: cycles simulated: 14500  inst.: 2790952 (ipc=192.5) sim_rate=27909 (inst/sec) elapsed = 0:0:01:40 / Wed May 13 00:31:10 2015
GPGPU-Sim PTX: 2900000 instructions simulated : ctaid=(7,0,0) tid=(171,0,0)
GPGPU-Sim uArch: cycles simulated: 15000  inst.: 2842920 (ipc=189.5) sim_rate=27601 (inst/sec) elapsed = 0:0:01:43 / Wed May 13 00:31:13 2015
GPGPU-Sim PTX: 3000000 instructions simulated : ctaid=(35,0,0) tid=(127,0,0)
GPGPU-Sim uArch: cycles simulated: 15500  inst.: 2910552 (ipc=187.8) sim_rate=27201 (inst/sec) elapsed = 0:0:01:47 / Wed May 13 00:31:17 2015
GPGPU-Sim uArch: cycles simulated: 16000  inst.: 2968704 (ipc=185.5) sim_rate=26988 (inst/sec) elapsed = 0:0:01:50 / Wed May 13 00:31:20 2015
GPGPU-Sim PTX: 3100000 instructions simulated : ctaid=(30,0,0) tid=(174,0,0)
GPGPU-Sim uArch: cycles simulated: 16500  inst.: 3019414 (ipc=183.0) sim_rate=26720 (inst/sec) elapsed = 0:0:01:53 / Wed May 13 00:31:23 2015
GPGPU-Sim uArch: cycles simulated: 17000  inst.: 3050281 (ipc=179.4) sim_rate=26070 (inst/sec) elapsed = 0:0:01:57 / Wed May 13 00:31:27 2015
GPGPU-Sim PTX: 3200000 instructions simulated : ctaid=(10,0,0) tid=(195,0,0)
GPGPU-Sim uArch: cycles simulated: 17500  inst.: 3091940 (ipc=176.7) sim_rate=25766 (inst/sec) elapsed = 0:0:02:00 / Wed May 13 00:31:30 2015
GPGPU-Sim uArch: cycles simulated: 18000  inst.: 3132884 (ipc=174.0) sim_rate=25470 (inst/sec) elapsed = 0:0:02:03 / Wed May 13 00:31:33 2015
GPGPU-Sim uArch: cycles simulated: 18500  inst.: 3160970 (ipc=170.9) sim_rate=25087 (inst/sec) elapsed = 0:0:02:06 / Wed May 13 00:31:36 2015
GPGPU-Sim PTX: 3300000 instructions simulated : ctaid=(13,0,0) tid=(118,0,0)
GPGPU-Sim uArch: cycles simulated: 19000  inst.: 3203947 (ipc=168.6) sim_rate=24645 (inst/sec) elapsed = 0:0:02:10 / Wed May 13 00:31:40 2015
GPGPU-Sim uArch: cycles simulated: 19500  inst.: 3249530 (ipc=166.6) sim_rate=24432 (inst/sec) elapsed = 0:0:02:13 / Wed May 13 00:31:43 2015
GPGPU-Sim PTX: 3400000 instructions simulated : ctaid=(58,0,0) tid=(177,0,0)
GPGPU-Sim uArch: cycles simulated: 20000  inst.: 3293844 (ipc=164.7) sim_rate=24398 (inst/sec) elapsed = 0:0:02:15 / Wed May 13 00:31:45 2015
GPGPU-Sim uArch: cycles simulated: 20500  inst.: 3339900 (ipc=162.9) sim_rate=24378 (inst/sec) elapsed = 0:0:02:17 / Wed May 13 00:31:47 2015
GPGPU-Sim uArch: cycles simulated: 21000  inst.: 3369715 (ipc=160.5) sim_rate=24242 (inst/sec) elapsed = 0:0:02:19 / Wed May 13 00:31:49 2015
GPGPU-Sim PTX: 3500000 instructions simulated : ctaid=(7,0,0) tid=(174,0,0)
GPGPU-Sim uArch: cycles simulated: 21500  inst.: 3407030 (ipc=158.5) sim_rate=24163 (inst/sec) elapsed = 0:0:02:21 / Wed May 13 00:31:51 2015
GPGPU-Sim uArch: cycles simulated: 22000  inst.: 3445021 (ipc=156.6) sim_rate=23923 (inst/sec) elapsed = 0:0:02:24 / Wed May 13 00:31:54 2015
GPGPU-Sim uArch: cycles simulated: 22500  inst.: 3476655 (ipc=154.5) sim_rate=23650 (inst/sec) elapsed = 0:0:02:27 / Wed May 13 00:31:57 2015
GPGPU-Sim PTX: 3600000 instructions simulated : ctaid=(26,0,0) tid=(177,0,0)
GPGPU-Sim uArch: cycles simulated: 23000  inst.: 3507990 (ipc=152.5) sim_rate=23386 (inst/sec) elapsed = 0:0:02:30 / Wed May 13 00:32:00 2015
GPGPU-Sim uArch: cycles simulated: 23500  inst.: 3530049 (ipc=150.2) sim_rate=23224 (inst/sec) elapsed = 0:0:02:32 / Wed May 13 00:32:02 2015
GPGPU-Sim uArch: cycles simulated: 24000  inst.: 3552464 (ipc=148.0) sim_rate=23067 (inst/sec) elapsed = 0:0:02:34 / Wed May 13 00:32:04 2015
GPGPU-Sim uArch: cycles simulated: 24500  inst.: 3569653 (ipc=145.7) sim_rate=22736 (inst/sec) elapsed = 0:0:02:37 / Wed May 13 00:32:07 2015
GPGPU-Sim PTX: 3700000 instructions simulated : ctaid=(7,0,0) tid=(195,0,0)
GPGPU-Sim uArch: cycles simulated: 25000  inst.: 3600128 (ipc=144.0) sim_rate=22642 (inst/sec) elapsed = 0:0:02:39 / Wed May 13 00:32:09 2015
GPGPU-Sim uArch: cycles simulated: 25500  inst.: 3631846 (ipc=142.4) sim_rate=22558 (inst/sec) elapsed = 0:0:02:41 / Wed May 13 00:32:11 2015
GPGPU-Sim uArch: cycles simulated: 26000  inst.: 3662031 (ipc=140.8) sim_rate=22466 (inst/sec) elapsed = 0:0:02:43 / Wed May 13 00:32:13 2015
GPGPU-Sim PTX: 3800000 instructions simulated : ctaid=(46,0,0) tid=(31,0,0)
GPGPU-Sim uArch: cycles simulated: 26500  inst.: 3684262 (ipc=139.0) sim_rate=22328 (inst/sec) elapsed = 0:0:02:45 / Wed May 13 00:32:15 2015
GPGPU-Sim uArch: cycles simulated: 27000  inst.: 3707680 (ipc=137.3) sim_rate=22201 (inst/sec) elapsed = 0:0:02:47 / Wed May 13 00:32:17 2015
GPGPU-Sim uArch: cycles simulated: 27500  inst.: 3730304 (ipc=135.6) sim_rate=21942 (inst/sec) elapsed = 0:0:02:50 / Wed May 13 00:32:20 2015
GPGPU-Sim uArch: cycles simulated: 28000  inst.: 3753924 (ipc=134.1) sim_rate=21825 (inst/sec) elapsed = 0:0:02:52 / Wed May 13 00:32:22 2015
GPGPU-Sim uArch: cycles simulated: 28500  inst.: 3772978 (ipc=132.4) sim_rate=21683 (inst/sec) elapsed = 0:0:02:54 / Wed May 13 00:32:24 2015
GPGPU-Sim PTX: 3900000 instructions simulated : ctaid=(57,0,0) tid=(89,0,0)
GPGPU-Sim uArch: cycles simulated: 29000  inst.: 3801204 (ipc=131.1) sim_rate=21597 (inst/sec) elapsed = 0:0:02:56 / Wed May 13 00:32:26 2015
GPGPU-Sim uArch: cycles simulated: 29500  inst.: 3822623 (ipc=129.6) sim_rate=21475 (inst/sec) elapsed = 0:0:02:58 / Wed May 13 00:32:28 2015
GPGPU-Sim uArch: cycles simulated: 30000  inst.: 3843179 (ipc=128.1) sim_rate=21233 (inst/sec) elapsed = 0:0:03:01 / Wed May 13 00:32:31 2015
GPGPU-Sim uArch: cycles simulated: 30500  inst.: 3860339 (ipc=126.6) sim_rate=20980 (inst/sec) elapsed = 0:0:03:04 / Wed May 13 00:32:34 2015
GPGPU-Sim PTX: 4000000 instructions simulated : ctaid=(59,0,0) tid=(180,0,0)
GPGPU-Sim uArch: cycles simulated: 31000  inst.: 3873818 (ipc=125.0) sim_rate=20605 (inst/sec) elapsed = 0:0:03:08 / Wed May 13 00:32:38 2015
GPGPU-Sim uArch: cycles simulated: 31500  inst.: 3892775 (ipc=123.6) sim_rate=20381 (inst/sec) elapsed = 0:0:03:11 / Wed May 13 00:32:41 2015
GPGPU-Sim uArch: cycles simulated: 32000  inst.: 3919765 (ipc=122.5) sim_rate=20204 (inst/sec) elapsed = 0:0:03:14 / Wed May 13 00:32:44 2015
GPGPU-Sim uArch: cycles simulated: 32500  inst.: 3944612 (ipc=121.4) sim_rate=20023 (inst/sec) elapsed = 0:0:03:17 / Wed May 13 00:32:47 2015
GPGPU-Sim PTX: 4100000 instructions simulated : ctaid=(8,0,0) tid=(240,0,0)
GPGPU-Sim uArch: cycles simulated: 33000  inst.: 3970056 (ipc=120.3) sim_rate=19850 (inst/sec) elapsed = 0:0:03:20 / Wed May 13 00:32:50 2015
GPGPU-Sim uArch: cycles simulated: 33500  inst.: 3991158 (ipc=119.1) sim_rate=19660 (inst/sec) elapsed = 0:0:03:23 / Wed May 13 00:32:53 2015
GPGPU-Sim uArch: cycles simulated: 34000  inst.: 4006172 (ipc=117.8) sim_rate=19447 (inst/sec) elapsed = 0:0:03:26 / Wed May 13 00:32:56 2015
GPGPU-Sim uArch: cycles simulated: 34500  inst.: 4020436 (ipc=116.5) sim_rate=19144 (inst/sec) elapsed = 0:0:03:30 / Wed May 13 00:33:00 2015
GPGPU-Sim uArch: cycles simulated: 35000  inst.: 4040228 (ipc=115.4) sim_rate=18968 (inst/sec) elapsed = 0:0:03:33 / Wed May 13 00:33:03 2015
GPGPU-Sim uArch: cycles simulated: 35500  inst.: 4058922 (ipc=114.3) sim_rate=18791 (inst/sec) elapsed = 0:0:03:36 / Wed May 13 00:33:06 2015
GPGPU-Sim PTX: 4200000 instructions simulated : ctaid=(19,0,0) tid=(158,0,0)
GPGPU-Sim uArch: cycles simulated: 36000  inst.: 4067670 (ipc=113.0) sim_rate=18573 (inst/sec) elapsed = 0:0:03:39 / Wed May 13 00:33:09 2015
GPGPU-Sim uArch: cycles simulated: 36500  inst.: 4087159 (ipc=112.0) sim_rate=18410 (inst/sec) elapsed = 0:0:03:42 / Wed May 13 00:33:12 2015
GPGPU-Sim uArch: cycles simulated: 37000  inst.: 4109861 (ipc=111.1) sim_rate=18266 (inst/sec) elapsed = 0:0:03:45 / Wed May 13 00:33:15 2015
GPGPU-Sim uArch: cycles simulated: 37500  inst.: 4138174 (ipc=110.4) sim_rate=18070 (inst/sec) elapsed = 0:0:03:49 / Wed May 13 00:33:19 2015
GPGPU-Sim uArch: cycles simulated: 38000  inst.: 4157348 (ipc=109.4) sim_rate=17919 (inst/sec) elapsed = 0:0:03:52 / Wed May 13 00:33:22 2015
GPGPU-Sim PTX: 4300000 instructions simulated : ctaid=(35,0,0) tid=(92,0,0)
GPGPU-Sim uArch: cycles simulated: 38500  inst.: 4180098 (ipc=108.6) sim_rate=17787 (inst/sec) elapsed = 0:0:03:55 / Wed May 13 00:33:25 2015
GPGPU-Sim uArch: cycles simulated: 39000  inst.: 4196711 (ipc=107.6) sim_rate=17633 (inst/sec) elapsed = 0:0:03:58 / Wed May 13 00:33:28 2015
GPGPU-Sim uArch: cycles simulated: 39500  inst.: 4213198 (ipc=106.7) sim_rate=17482 (inst/sec) elapsed = 0:0:04:01 / Wed May 13 00:33:31 2015
GPGPU-Sim uArch: cycles simulated: 40000  inst.: 4233253 (ipc=105.8) sim_rate=17349 (inst/sec) elapsed = 0:0:04:04 / Wed May 13 00:33:34 2015
GPGPU-Sim uArch: cycles simulated: 40500  inst.: 4251355 (ipc=105.0) sim_rate=17281 (inst/sec) elapsed = 0:0:04:06 / Wed May 13 00:33:36 2015
GPGPU-Sim PTX: 4400000 instructions simulated : ctaid=(38,0,0) tid=(40,0,0)
GPGPU-Sim uArch: cycles simulated: 41000  inst.: 4268676 (ipc=104.1) sim_rate=17212 (inst/sec) elapsed = 0:0:04:08 / Wed May 13 00:33:38 2015
GPGPU-Sim uArch: cycles simulated: 41500  inst.: 4289386 (ipc=103.4) sim_rate=17157 (inst/sec) elapsed = 0:0:04:10 / Wed May 13 00:33:40 2015
GPGPU-Sim uArch: cycles simulated: 42000  inst.: 4310109 (ipc=102.6) sim_rate=17036 (inst/sec) elapsed = 0:0:04:13 / Wed May 13 00:33:43 2015
GPGPU-Sim uArch: cycles simulated: 42500  inst.: 4330819 (ipc=101.9) sim_rate=16983 (inst/sec) elapsed = 0:0:04:15 / Wed May 13 00:33:45 2015
GPGPU-Sim uArch: cycles simulated: 43000  inst.: 4346973 (ipc=101.1) sim_rate=16914 (inst/sec) elapsed = 0:0:04:17 / Wed May 13 00:33:47 2015
GPGPU-Sim PTX: 4500000 instructions simulated : ctaid=(52,0,0) tid=(12,0,0)
GPGPU-Sim uArch: cycles simulated: 43500  inst.: 4363550 (ipc=100.3) sim_rate=16847 (inst/sec) elapsed = 0:0:04:19 / Wed May 13 00:33:49 2015
GPGPU-Sim uArch: cycles simulated: 44000  inst.: 4384553 (ipc=99.6) sim_rate=16799 (inst/sec) elapsed = 0:0:04:21 / Wed May 13 00:33:51 2015
GPGPU-Sim uArch: cycles simulated: 44500  inst.: 4404361 (ipc=99.0) sim_rate=16683 (inst/sec) elapsed = 0:0:04:24 / Wed May 13 00:33:54 2015
GPGPU-Sim uArch: cycles simulated: 45000  inst.: 4421438 (ipc=98.3) sim_rate=16621 (inst/sec) elapsed = 0:0:04:26 / Wed May 13 00:33:56 2015
GPGPU-Sim uArch: cycles simulated: 45500  inst.: 4441793 (ipc=97.6) sim_rate=16573 (inst/sec) elapsed = 0:0:04:28 / Wed May 13 00:33:58 2015
GPGPU-Sim PTX: 4600000 instructions simulated : ctaid=(14,0,0) tid=(201,0,0)
GPGPU-Sim uArch: cycles simulated: 46000  inst.: 4462695 (ipc=97.0) sim_rate=16467 (inst/sec) elapsed = 0:0:04:31 / Wed May 13 00:34:01 2015
GPGPU-Sim uArch: cycles simulated: 46500  inst.: 4482812 (ipc=96.4) sim_rate=16301 (inst/sec) elapsed = 0:0:04:35 / Wed May 13 00:34:05 2015
GPGPU-Sim uArch: cycles simulated: 47000  inst.: 4497677 (ipc=95.7) sim_rate=16178 (inst/sec) elapsed = 0:0:04:38 / Wed May 13 00:34:08 2015
GPGPU-Sim uArch: cycles simulated: 47500  inst.: 4509975 (ipc=94.9) sim_rate=16049 (inst/sec) elapsed = 0:0:04:41 / Wed May 13 00:34:11 2015
GPGPU-Sim uArch: cycles simulated: 48000  inst.: 4528362 (ipc=94.3) sim_rate=15944 (inst/sec) elapsed = 0:0:04:44 / Wed May 13 00:34:14 2015
GPGPU-Sim uArch: cycles simulated: 48500  inst.: 4547293 (ipc=93.8) sim_rate=15789 (inst/sec) elapsed = 0:0:04:48 / Wed May 13 00:34:18 2015
GPGPU-Sim PTX: 4700000 instructions simulated : ctaid=(32,0,0) tid=(252,0,0)
GPGPU-Sim uArch: cycles simulated: 49000  inst.: 4562560 (ipc=93.1) sim_rate=15678 (inst/sec) elapsed = 0:0:04:51 / Wed May 13 00:34:21 2015
GPGPU-Sim uArch: cycles simulated: 49500  inst.: 4577044 (ipc=92.5) sim_rate=15568 (inst/sec) elapsed = 0:0:04:54 / Wed May 13 00:34:24 2015
GPGPU-Sim uArch: cycles simulated: 50000  inst.: 4597320 (ipc=91.9) sim_rate=15427 (inst/sec) elapsed = 0:0:04:58 / Wed May 13 00:34:28 2015
GPGPU-Sim uArch: cycles simulated: 50500  inst.: 4618057 (ipc=91.4) sim_rate=15342 (inst/sec) elapsed = 0:0:05:01 / Wed May 13 00:34:31 2015
GPGPU-Sim uArch: cycles simulated: 51000  inst.: 4642899 (ipc=91.0) sim_rate=15272 (inst/sec) elapsed = 0:0:05:04 / Wed May 13 00:34:34 2015
GPGPU-Sim PTX: 4800000 instructions simulated : ctaid=(9,0,0) tid=(72,0,0)
GPGPU-Sim uArch: cycles simulated: 51500  inst.: 4655601 (ipc=90.4) sim_rate=15164 (inst/sec) elapsed = 0:0:05:07 / Wed May 13 00:34:37 2015
GPGPU-Sim uArch: cycles simulated: 52000  inst.: 4669705 (ipc=89.8) sim_rate=15063 (inst/sec) elapsed = 0:0:05:10 / Wed May 13 00:34:40 2015
GPGPU-Sim uArch: cycles simulated: 52500  inst.: 4690414 (ipc=89.3) sim_rate=14985 (inst/sec) elapsed = 0:0:05:13 / Wed May 13 00:34:43 2015
GPGPU-Sim uArch: cycles simulated: 53000  inst.: 4700078 (ipc=88.7) sim_rate=14920 (inst/sec) elapsed = 0:0:05:15 / Wed May 13 00:34:45 2015
GPGPU-Sim uArch: cycles simulated: 53500  inst.: 4720835 (ipc=88.2) sim_rate=14845 (inst/sec) elapsed = 0:0:05:18 / Wed May 13 00:34:48 2015
GPGPU-Sim uArch: cycles simulated: 54000  inst.: 4744479 (ipc=87.9) sim_rate=14780 (inst/sec) elapsed = 0:0:05:21 / Wed May 13 00:34:51 2015
GPGPU-Sim PTX: 4900000 instructions simulated : ctaid=(17,0,0) tid=(8,0,0)
GPGPU-Sim uArch: cycles simulated: 54500  inst.: 4765156 (ipc=87.4) sim_rate=14707 (inst/sec) elapsed = 0:0:05:24 / Wed May 13 00:34:54 2015
GPGPU-Sim uArch: cycles simulated: 55000  inst.: 4779995 (ipc=86.9) sim_rate=14662 (inst/sec) elapsed = 0:0:05:26 / Wed May 13 00:34:56 2015
GPGPU-Sim uArch: cycles simulated: 55500  inst.: 4794065 (ipc=86.4) sim_rate=14571 (inst/sec) elapsed = 0:0:05:29 / Wed May 13 00:34:59 2015
GPGPU-Sim uArch: cycles simulated: 56000  inst.: 4812644 (ipc=85.9) sim_rate=14495 (inst/sec) elapsed = 0:0:05:32 / Wed May 13 00:35:02 2015
GPGPU-Sim uArch: cycles simulated: 56500  inst.: 4832112 (ipc=85.5) sim_rate=14424 (inst/sec) elapsed = 0:0:05:35 / Wed May 13 00:35:05 2015
GPGPU-Sim PTX: 5000000 instructions simulated : ctaid=(17,0,0) tid=(237,0,0)
GPGPU-Sim uArch: cycles simulated: 57000  inst.: 4852355 (ipc=85.1) sim_rate=14356 (inst/sec) elapsed = 0:0:05:38 / Wed May 13 00:35:08 2015
GPGPU-Sim uArch: cycles simulated: 57500  inst.: 4873310 (ipc=84.8) sim_rate=14333 (inst/sec) elapsed = 0:0:05:40 / Wed May 13 00:35:10 2015
GPGPU-Sim uArch: cycles simulated: 58000  inst.: 4888813 (ipc=84.3) sim_rate=14253 (inst/sec) elapsed = 0:0:05:43 / Wed May 13 00:35:13 2015
GPGPU-Sim uArch: cycles simulated: 58500  inst.: 4912497 (ipc=84.0) sim_rate=14197 (inst/sec) elapsed = 0:0:05:46 / Wed May 13 00:35:16 2015
GPGPU-Sim uArch: cycles simulated: 59000  inst.: 4928693 (ipc=83.5) sim_rate=14081 (inst/sec) elapsed = 0:0:05:50 / Wed May 13 00:35:20 2015
GPGPU-Sim uArch: cycles simulated: 59500  inst.: 4943835 (ipc=83.1) sim_rate=14005 (inst/sec) elapsed = 0:0:05:53 / Wed May 13 00:35:23 2015
GPGPU-Sim PTX: 5100000 instructions simulated : ctaid=(10,0,0) tid=(40,0,0)
GPGPU-Sim uArch: cycles simulated: 60000  inst.: 4961471 (ipc=82.7) sim_rate=13936 (inst/sec) elapsed = 0:0:05:56 / Wed May 13 00:35:26 2015
GPGPU-Sim uArch: cycles simulated: 60500  inst.: 4982181 (ipc=82.4) sim_rate=13877 (inst/sec) elapsed = 0:0:05:59 / Wed May 13 00:35:29 2015
GPGPU-Sim uArch: cycles simulated: 61000  inst.: 5000482 (ipc=82.0) sim_rate=13775 (inst/sec) elapsed = 0:0:06:03 / Wed May 13 00:35:33 2015
GPGPU-Sim uArch: cycles simulated: 61500  inst.: 5017698 (ipc=81.6) sim_rate=13709 (inst/sec) elapsed = 0:0:06:06 / Wed May 13 00:35:36 2015
GPGPU-Sim uArch: cycles simulated: 62000  inst.: 5036102 (ipc=81.2) sim_rate=13647 (inst/sec) elapsed = 0:0:06:09 / Wed May 13 00:35:39 2015
GPGPU-Sim PTX: 5200000 instructions simulated : ctaid=(15,0,0) tid=(128,0,0)
GPGPU-Sim uArch: cycles simulated: 62500  inst.: 5054308 (ipc=80.9) sim_rate=13550 (inst/sec) elapsed = 0:0:06:13 / Wed May 13 00:35:43 2015
GPGPU-Sim uArch: cycles simulated: 63000  inst.: 5077974 (ipc=80.6) sim_rate=13505 (inst/sec) elapsed = 0:0:06:16 / Wed May 13 00:35:46 2015
GPGPU-Sim PTX: WARNING (_1.ptx:464) ** reading undefined register '%p19' (cuid:0). Setting to 0X00000000. This is okay if you are simulating the native ISA
GPGPU-Sim uArch: cycles simulated: 63500  inst.: 5098822 (ipc=80.3) sim_rate=13417 (inst/sec) elapsed = 0:0:06:20 / Wed May 13 00:35:50 2015
GPGPU-Sim uArch: cycles simulated: 64000  inst.: 5115901 (ipc=79.9) sim_rate=13357 (inst/sec) elapsed = 0:0:06:23 / Wed May 13 00:35:53 2015
GPGPU-Sim uArch: cycles simulated: 64500  inst.: 5134505 (ipc=79.6) sim_rate=13301 (inst/sec) elapsed = 0:0:06:26 / Wed May 13 00:35:56 2015
GPGPU-Sim PTX: 5300000 instructions simulated : ctaid=(31,0,0) tid=(126,0,0)
GPGPU-Sim uArch: cycles simulated: 65000  inst.: 5154626 (ipc=79.3) sim_rate=13216 (inst/sec) elapsed = 0:0:06:30 / Wed May 13 00:36:00 2015
GPGPU-Sim uArch: cycles simulated: 65500  inst.: 5169293 (ipc=78.9) sim_rate=13120 (inst/sec) elapsed = 0:0:06:34 / Wed May 13 00:36:04 2015
GPGPU-Sim uArch: cycles simulated: 66000  inst.: 5185595 (ipc=78.6) sim_rate=13061 (inst/sec) elapsed = 0:0:06:37 / Wed May 13 00:36:07 2015
GPGPU-Sim uArch: cycles simulated: 66500  inst.: 5194201 (ipc=78.1) sim_rate=12953 (inst/sec) elapsed = 0:0:06:41 / Wed May 13 00:36:11 2015
GPGPU-Sim uArch: cycles simulated: 67000  inst.: 5211897 (ipc=77.8) sim_rate=12900 (inst/sec) elapsed = 0:0:06:44 / Wed May 13 00:36:14 2015
GPGPU-Sim uArch: cycles simulated: 67500  inst.: 5230016 (ipc=77.5) sim_rate=12818 (inst/sec) elapsed = 0:0:06:48 / Wed May 13 00:36:18 2015
GPGPU-Sim PTX: 5400000 instructions simulated : ctaid=(40,0,0) tid=(168,0,0)
GPGPU-Sim uArch: cycles simulated: 68000  inst.: 5257616 (ipc=77.3) sim_rate=12792 (inst/sec) elapsed = 0:0:06:51 / Wed May 13 00:36:21 2015
GPGPU-Sim uArch: cycles simulated: 68500  inst.: 5279938 (ipc=77.1) sim_rate=12753 (inst/sec) elapsed = 0:0:06:54 / Wed May 13 00:36:24 2015
GPGPU-Sim uArch: cycles simulated: 69000  inst.: 5292905 (ipc=76.7) sim_rate=12662 (inst/sec) elapsed = 0:0:06:58 / Wed May 13 00:36:28 2015
GPGPU-Sim uArch: cycles simulated: 69500  inst.: 5311425 (ipc=76.4) sim_rate=12616 (inst/sec) elapsed = 0:0:07:01 / Wed May 13 00:36:31 2015
GPGPU-Sim uArch: cycles simulated: 70000  inst.: 5331726 (ipc=76.2) sim_rate=12574 (inst/sec) elapsed = 0:0:07:04 / Wed May 13 00:36:34 2015
GPGPU-Sim PTX: 5500000 instructions simulated : ctaid=(37,0,0) tid=(204,0,0)
GPGPU-Sim uArch: cycles simulated: 70500  inst.: 5351332 (ipc=75.9) sim_rate=12503 (inst/sec) elapsed = 0:0:07:08 / Wed May 13 00:36:38 2015
GPGPU-Sim uArch: cycles simulated: 71000  inst.: 5375976 (ipc=75.7) sim_rate=12473 (inst/sec) elapsed = 0:0:07:11 / Wed May 13 00:36:41 2015
GPGPU-Sim uArch: cycles simulated: 71500  inst.: 5394699 (ipc=75.5) sim_rate=12430 (inst/sec) elapsed = 0:0:07:14 / Wed May 13 00:36:44 2015
GPGPU-Sim uArch: cycles simulated: 72000  inst.: 5409913 (ipc=75.1) sim_rate=12351 (inst/sec) elapsed = 0:0:07:18 / Wed May 13 00:36:48 2015
GPGPU-Sim uArch: cycles simulated: 72500  inst.: 5425983 (ipc=74.8) sim_rate=12303 (inst/sec) elapsed = 0:0:07:21 / Wed May 13 00:36:51 2015
GPGPU-Sim PTX: 5600000 instructions simulated : ctaid=(21,0,0) tid=(201,0,0)
GPGPU-Sim uArch: cycles simulated: 73000  inst.: 5446886 (ipc=74.6) sim_rate=12267 (inst/sec) elapsed = 0:0:07:24 / Wed May 13 00:36:54 2015
GPGPU-Sim uArch: cycles simulated: 73500  inst.: 5462158 (ipc=74.3) sim_rate=12192 (inst/sec) elapsed = 0:0:07:28 / Wed May 13 00:36:58 2015
GPGPU-Sim uArch: cycles simulated: 74000  inst.: 5482375 (ipc=74.1) sim_rate=12156 (inst/sec) elapsed = 0:0:07:31 / Wed May 13 00:37:01 2015
GPGPU-Sim uArch: cycles simulated: 74500  inst.: 5496214 (ipc=73.8) sim_rate=12106 (inst/sec) elapsed = 0:0:07:34 / Wed May 13 00:37:04 2015
GPGPU-Sim uArch: cycles simulated: 75000  inst.: 5514667 (ipc=73.5) sim_rate=12040 (inst/sec) elapsed = 0:0:07:38 / Wed May 13 00:37:08 2015
GPGPU-Sim uArch: cycles simulated: 75500  inst.: 5526511 (ipc=73.2) sim_rate=11988 (inst/sec) elapsed = 0:0:07:41 / Wed May 13 00:37:11 2015
GPGPU-Sim PTX: 5700000 instructions simulated : ctaid=(33,0,0) tid=(46,0,0)
GPGPU-Sim uArch: cycles simulated: 76000  inst.: 5543142 (ipc=72.9) sim_rate=11946 (inst/sec) elapsed = 0:0:07:44 / Wed May 13 00:37:14 2015
GPGPU-Sim uArch: cycles simulated: 76500  inst.: 5558564 (ipc=72.7) sim_rate=11877 (inst/sec) elapsed = 0:0:07:48 / Wed May 13 00:37:18 2015
GPGPU-Sim uArch: cycles simulated: 77000  inst.: 5574447 (ipc=72.4) sim_rate=11835 (inst/sec) elapsed = 0:0:07:51 / Wed May 13 00:37:21 2015
GPGPU-Sim uArch: cycles simulated: 77500  inst.: 5586228 (ipc=72.1) sim_rate=11785 (inst/sec) elapsed = 0:0:07:54 / Wed May 13 00:37:24 2015
GPGPU-Sim uArch: cycles simulated: 78000  inst.: 5602827 (ipc=71.8) sim_rate=11721 (inst/sec) elapsed = 0:0:07:58 / Wed May 13 00:37:28 2015
GPGPU-Sim uArch: cycles simulated: 78500  inst.: 5621118 (ipc=71.6) sim_rate=11686 (inst/sec) elapsed = 0:0:08:01 / Wed May 13 00:37:31 2015
GPGPU-Sim PTX: 5800000 instructions simulated : ctaid=(21,0,0) tid=(16,0,0)
[...]
> rid49134
> rid49135
> rid49136
> rid49137
 1008519         1        25
> rid49138
> rid49139
 1209092         1        25
> rid49140
   45736         1        25
> rid49141
   27157         1        25
> rid49142
> rid49143
> rid49144
> rid49145
 1374700         1        25
> rid49146
> rid49147
> rid49148
 1214320         1        25
> rid49149
> rid49150
> rid49151
> rid49152
> rid49153
  600394         1        25
> rid49154
> rid49155
> rid49156
> rid49157
> rid49158
> rid49159
  181933         1        25
> rid49160
> rid49161
> rid49162
   40771         1        25
> rid49163
> rid49164
 1267747         1        25
> rid49165
> rid49166
> rid49167
> rid49168
> rid49169
> rid49170
> rid49171
 1091494         1        25
> rid49172
  818759         1        25
> rid49173
> rid49174
> rid49175
> rid49176
  806236         1        25
> rid49177
> rid49178
> rid49179
> rid49180
> rid49181
> rid49182
> rid49183
  681677         1        25
> rid49184
> rid49185
> rid49186
> rid49187
> rid49188
> rid49189
   56152         1        25
> rid49190
> rid49191
> rid49192
> rid49193
 1129725         1        25
> rid49194
> rid49195
> rid49196
> rid49197
  408785         1        25
> rid49198
  691453         1        25
> rid49199
> rid49200
> rid49201
  821432         1        25
> rid49202
> rid49203
> rid49204
> rid49205
> rid49206
 1131436         1        25
> rid49207
> rid49208
> rid49209
> rid49210
  689927         1        25
> rid49211
> rid49212
> rid49213
> rid49214
> rid49215
> rid49216
> rid49217
> rid49218
> rid49219
   64380         1        25
> rid49220
> rid49221
  523711         1        25
> rid49222
 1293656         1        25
> rid49223
> rid49224
  567033         1        25
> rid49225
  460951         1        25
> rid49226
> rid49227
> rid49228
> rid49229
> rid49230
> rid49231
> rid49232
> rid49233
 1188744         1        25
> rid49234
  515326         1        25
> rid49235
> rid49236
   57914         1        25
> rid49237
> rid49238
> rid49239
 1377798         1        25
> rid49240
> rid49241
> rid49242
 1018612         1        25
> rid49243
> rid49244
  533876         1        22
  742977         1        25
   10748         1        25
   30542         1        25
  146928         1        25
   83864         1        25
  291498         1        25
  247648         1        25
  268227         1        25
  281525         1        25
> rid49245
  130201         1        25
> rid49246
> rid49247
  941556         1        25
> rid49248
> rid49249
> rid49250
 1114905         1        25
> rid49251
  861975         1        25
> rid49252
> rid49253
> rid49254
> rid49255
> rid49256
  984678         1        25
> rid49257
> rid49258
> rid49259
> rid49260
> rid49261
> rid49262
> rid49263
> rid49264
> rid49265
> rid49266
> rid49267
> rid49268
> rid49269
> rid49270
  833480         1        25
> rid49271
> rid49272
> rid49273
> rid49274
> rid49275
  230839         1        25
> rid49276
  377339         1        25
> rid49277
> rid49278
> rid49279
  640598         1        25
> rid49280
  440738         1        25
> rid49281
> rid49282
 1141785         1        25
> rid49283
> rid49284
> rid49285
> rid49286
> rid49287
> rid49288
  413630         1        25
> rid49289
> rid49290
> rid49291
> rid49292
> rid49293
 1042788         1        25
> rid49294
> rid49295
> rid49296
 1369856         1        25
> rid49297
 1288106         1        25
> rid49298
> rid49299
> rid49300
  640004         1        25
> rid49301
> rid49302
> rid49303
  530057         1        25
> rid49304
> rid49305
> rid49306
> rid49307
> rid49308
> rid49309
> rid49310
> rid49311
> rid49312
> rid49313
> rid49314
 1023241         1        25
> rid49315
 1298049         1        25
> rid49316
> rid49317
> rid49318
> rid49319
> rid49320
> rid49321
> rid49322
> rid49323
> rid49324
> rid49325
> rid49326
> rid49327
 1124394         1        25
> rid49328
> rid49329
 1297277         1        25
> rid49330
  745222         1        25
  536113         1        25
   86109         1        25
  149173         1        25
  293743         1        25
  249893         1        25
   13220         1        25
   33014         1        25
  270472         1        25
  283770         1        25
> rid49331
  411847         1        25
> rid49332
 1044749         1        25
> rid49333
> rid49334
> rid49335
  319720         1        25
> rid49336
 1217615         1        25
> rid49337
> rid49338
 1114625         1        25
> rid49339
> rid49340
> rid49341
> rid49342
> rid49343
 1184038         1        25
> rid49344
  661947         1        25
> rid49345
> rid49346
> rid49347
> rid49348
 1340670         1        25
> rid49349
> rid49350
  481543         1        25
> rid49351
  332874         1        25
> rid49352
> rid49353
  548905         1        25
> rid49354
 1126690         1        25
> rid49355
> rid49356
> rid49357
> rid49358
  271848         1        25
> rid49359
> rid49360
> rid49361
> rid49362
> rid49363
> rid49364
> rid49365
 1319507         1        25
> rid49366
> rid49367
> rid49368
> rid49369
> rid49370
> rid49371
> rid49372
> rid49373
  533615         1        25
  742716         1        25
   10487         1        25
   30281         1        25
  146667         1        25
   83603         1        25
  291237         1        25
  247387         1        25
  267966         1        25
  281264         1        25
> rid49374
> rid49375
> rid49376
> rid49377
> rid49378
> rid49379
> rid49380
> rid49381
> rid49382
> rid49383
> rid49384
> rid49385
> rid49386
> rid49387
> rid49388
> rid49389
  206848         1        25
> rid49390
> rid49391
  536195         1        25
   86191         1        25
  745304         1        25
  149255         1        25
  293825         1        25
  249975         1        25
   13302         1        25
   33096         1        25
  270554         1        25
  283852         1        25
> rid49392
> rid49393
  367866         1        25
> rid49394
 1385446         1        25
> rid49395
> rid49396
> rid49397
  209356         1        25
> rid49398
> rid49399
 1246593         1        25
> rid49400
> rid49401
> rid49402
 1023575         1        25
> rid49403
  776536         1        25
> rid49404
> rid49405
> rid49406
> rid49407
> rid49408
> rid49409
  723469         1        25
> rid49410
> rid49411
> rid49412
> rid49413
 1250646         1        25
> rid49414
> rid49415
> rid49416
> rid49417
  241700         1        25
> rid49418
> rid49419
> rid49420
> rid49421
  968857         1        25
> rid49422
> rid49423
> rid49424
> rid49425
> rid49426
> rid49427
 1376593         1        25
> rid49428
> rid49429
  654595         1        25
> rid49430
 1124691         1        25
> rid49431
  790836         1        25
> rid49432
> rid49433
> rid49434
> rid49435
> rid49436
> rid49437
> rid49438
> rid49439
  432399         1        25
> rid49440
> rid49441
> rid49442
> rid49443
> rid49444
> rid49445
> rid49446
> rid49447
   89099         1        25
> rid49448
> rid49449
> rid49450
> rid49451
> rid49452
  984815         1        25
> rid49453
> rid49454
  801369         1        25
> rid49455
 1332032         1        25
> rid49456
  717025         1        25
> rid49457
 1398665         1        25
> rid49458
> rid49459
 1141772         1        25
> rid49460
> rid49461
> rid49462
> rid49463
> rid49464
  141697         1        25
> rid49465
 1357232         1        25
> rid49466
> rid49467
> rid49468
> rid49469
> rid49470
> rid49471
> rid49472
> rid49473
> rid49474
 1165129         1        25
> rid49475
  196334         1        25
> rid49476
> rid49477
 1377120         1        25
> rid49478
   27848         1        25
> rid49479
> rid49480
> rid49481
> rid49482
> rid49483
> rid49484
> rid49485
  465122         1        25
> rid49486
 1240136         1        25
> rid49487
> rid49488
  685446         1        25
> rid49489
> rid49490
> rid49491
> rid49492
> rid49493
> rid49494
> rid49495
> rid49496
> rid49497
> rid49498
> rid49499
 1203801         1        25
> rid49500
 1206984         1        25
> rid49501
> rid49502
> rid49503
> rid49504
  465123         1        25
> rid49505
  354053         1        25
> rid49506
  231681         1        25
> rid49507
  612319         1        25
> rid49508
> rid49509
> rid49510
  938705         1        25
> rid49511
> rid49512
> rid49513
> rid49514
> rid49515
> rid49516
> rid49517
> rid49518
> rid49519
> rid49520
> rid49521
> rid49522
  314957         1        25
> rid49523
> rid49524
> rid49525
> rid49526
> rid49527
 1234927         1        25
> rid49528
> rid49529
> rid49530
> rid49531
> rid49532
> rid49533
  707755         1        25
> rid49534
> rid49535
> rid49536
> rid49537
> rid49538
> rid49539
> rid49540
  228749         1        25
> rid49541
> rid49542
> rid49543
> rid49544
> rid49545
> rid49546
  397847         1        25
> rid49547
> rid49548
> rid49549
> rid49550
> rid49551
> rid49552
> rid49553
  511359         1        25
> rid49554
> rid49555
> rid49556
> rid49557
  938156         1        25
> rid49558
> rid49559
   63489         1        25
> rid49560
> rid49561
  757965         1        25
> rid49562
> rid49563
> rid49564
   11371         1        25
   31165         1        25
  743373         1        25
  147324         1        25
   84260         1        25
  291894         1        25
  248044         1        25
  268623         1        25
  534264         1        25
  281921         1        25
> rid49565
> rid49566
> rid49567
> rid49568
> rid49569
> rid49570
 1046023         1        25
> rid49571
  220989         1        25
> rid49572
> rid49573
> rid49574
 1053134         1        25
> rid49575
> rid49576
> rid49577
> rid49578
> rid49579
> rid49580
  379487         1        25
> rid49581
> rid49582
> rid49583
> rid49584
  803791         1        25
> rid49585
> rid49586
  789340         1        25
> rid49587
> rid49588
  641168         1        25
> rid49589
 1086216         1        25
> rid49590
  522368         1        25
> rid49591
> rid49592
> rid49593
> rid49594
> rid49595
> rid49596
 1008335         1        25
> rid49597
> rid49598
> rid49599
> rid49600
  895585         1        25
> rid49601
> rid49602
> rid49603
> rid49604
  481273         1        25
> rid49605
 1265360         1        25
> rid49606
  945997         1        25
> rid49607
  866211         1        25
> rid49608
> rid49609
> rid49610
 1132354         1        25
> rid49611
> rid49612
  254664         1        25
> rid49613
> rid49614
> rid49615
> rid49616
 1042789         1        25
> rid49617
 1099512         1        25
> rid49618
> rid49619
> rid49620
> rid49621
> rid49622
> rid49623
  610559         1        25
> rid49624
  137795         1        25
> rid49625
> rid49626
> rid49627
  869202         1        25
> rid49628
  924772         1        25
> rid49629
> rid49630
> rid49631
  503804         1        25
> rid49632
> rid49633
> rid49634
> rid49635
> rid49636
> rid49637
> rid49638
> rid49639
 1348636         1        25
> rid49640
> rid49641
> rid49642
  443541         1        25
> rid49643
> rid49644
> rid49645
  604490         1        25
> rid49646
> rid49647
> rid49648
> rid49649
> rid49650
  301575         1        25
> rid49651
> rid49652
> rid49653
> rid49654
> rid49655
> rid49656
> rid49657
 1226070         1        25
> rid49658
> rid49659
> rid49660
  717745         1        25
> rid49661
  238563         1        25
> rid49662
> rid49663
  657195         1        25
> rid49664
> rid49665
  308691         1        25
> rid49666
  367792         1        25
> rid49667
> rid49668
   36855         1        25
> rid49669
> rid49670
> rid49671
> rid49672
  693603         1        25
> rid49673
> rid49674
> rid49675
> rid49676
  195960         1        25
> rid49677
> rid49678
> rid49679
> rid49680
> rid49681
  503639         1        25
> rid49682
> rid49683
  802855         1        25
> rid49684
> rid49685
> rid49686
   83466         1        25
  247250         1        25
  267829         1        25
  281127         1        25
   30144         1        25
  291100         1        25
  533478         1        25
   10350         1        25
  146530         1        25
  742584         6        20
> rid49687
   86592         1        25
  745705         1        25
  149656         1        25
  294226         1        25
  250376         1        25
   13703         1        25
   33497         1        25
  536596         1        25
  270955         1        25
  284253         1        25
> rid49688
  828545         1        25
> rid49689
> rid49690
> rid49691
> rid49692
> rid49693
> rid49694
> rid49695
> rid49696
 1047497         1        25
> rid49697
> rid49698
> rid49699
> rid49700
  933309         1        25
> rid49701
> rid49702
> rid49703
> rid49704
> rid49705
> rid49706
 1188654         1        25
> rid49707
> rid49708
  546041         1        25
> rid49709
> rid49710
  297402         1        25
> rid49711
  792102         1        25
> rid49712
 1071385         1        25
> rid49713
> rid49714
> rid49715
> rid49716
  850276         1        25
> rid49717
  744443         1        25
   85330         1        25
  148394         1        25
  292964         1        25
  249114         1        25
   12441         1        25
   32235         1        25
  269693         1        25
  282991         1        25
  535334         1        25
> rid49718
> rid49719
> rid49720
> rid49721
  990174         1        25
> rid49722
 1241184         1        25
> rid49723
> rid49724
> rid49725
> rid49726
 1159531         1        25
> rid49727
> rid49728
> rid49729
> rid49730
> rid49731
 1199674         1        25
> rid49732
> rid49733
  333915         1        25
> rid49734
> rid49735
> rid49736
 1206999         1        25
> rid49737
> rid49738
  784334         1        25
> rid49739
> rid49740
> rid49741
> rid49742
 1023740         1        25
> rid49743
> rid49744
> rid49745
> rid49746
> rid49747
> rid49748
  348016         1        25
> rid49749
> rid49750
> rid49751
> rid49752
 1285447         1        25
> rid49753
> rid49754
> rid49755
> rid49756
> rid49757
> rid49758
> rid49759
> rid49760
  212195         1        25
> rid49761
> rid49762
> rid49763
> rid49764
  727642         1        25
> rid49765
  420377         1        25
> rid49766
> rid49767
> rid49768
   83426         1        25
  247210         1        25
  267789         1        25
  281087         1        25
   30104         1        25
  291060         1        25
  533438         1        25
   10310         1        25
  146490         1        25
  742539         1        25
> rid49769
> rid49770
   72948         1        25
> rid49771
> rid49772
> rid49773
  763014         1        25
> rid49774
> rid49775
  852661         1        25
> rid49776
> rid49777
> rid49778
> rid49779
> rid49780
   86684         1        25
  745797         1        25
  149748         1        25
  294318         1        25
  250468         1        25
   13795         1        25
   33589         1        25
  536688         1        25
  271047         1        25
  284345         1        25
> rid49781
  423418         1        25
> rid49782
> rid49783
  557607         1        25
> rid49784
 1060621         1        25
> rid49785
   56705         1        25
> rid49786
> rid49787
> rid49788
> rid49789
> rid49790
> rid49791
 1269237         1        25
> rid49792
  327553         1        25
> rid49793
> rid49794
> rid49795
> rid49796
> rid49797
  958289         1        25
> rid49798
> rid49799
  366922         1        25
> rid49800
> rid49801
 1016424         1        25
> rid49802
> rid49803
> rid49804
  675439         1        25
> rid49805
 1264991         1        25
> rid49806
> rid49807
> rid49808
> rid49809
 1274384         1        25
> rid49810
  226417         1        25
> rid49811
> rid49812
> rid49813
> rid49814
  783930         1        25
> rid49815
> rid49816
> rid49817
> rid49818
> rid49819
> rid49820
  795734         1        25
> rid49821
  187458         1        25
> rid49822
> rid49823
   38562         1        25
> rid49824
 1237605         1        25
> rid49825
> rid49826
  912356         1        25
> rid49827
> rid49828
 1162180         1        25
> rid49829
  739296         1        25
> rid49830
  673984         1        25
> rid49831
  384109         1        25
> rid49832
> rid49833
> rid49834
> rid49835
> rid49836
> rid49837
  808773         1        25
> rid49838
 1222000         1        25
> rid49839
> rid49840
> rid49841
> rid49842
> rid49843
> rid49844
> rid49845
 1108920         1        25
> rid49846
> rid49847
> rid49848
> rid49849
> rid49850
> rid49851
> rid49852
> rid49853
  928112         1        25
> rid49854
> rid49855
> rid49856
> rid49857
> rid49858
> rid49859
   47857         1        25
> rid49860
> rid49861
> rid49862
> rid49863
> rid49864
> rid49865
> rid49866
> rid49867
> rid49868
 1091342         1        25
> rid49869
> rid49870
> rid49871
  365891         1        25
> rid49872
> rid49873
> rid49874
  829119         1        25
> rid49875
> rid49876
> rid49877
  709555         1        25
> rid49878
> rid49879
> rid49880
> rid49881
> rid49882
> rid49883
> rid49884
> rid49885
 1153317         1        25
> rid49886
> rid49887
  428275         1        25
> rid49888
> rid49889
> rid49890
  401698         1        25
> rid49891
> rid49892
> rid49893
  850658         1        25
> rid49894
  302007         1        25
> rid49895
> rid49896
 1011642         1        25
> rid49897
> rid49898
> rid49899
> rid49900
> rid49901
> rid49902
> rid49903
> rid49904
> rid49905
  901819         1        25
> rid49906
> rid49907
> rid49908
> rid49909
  378577         1        25
> rid49910
> rid49911
> rid49912
  743963         1        25
   84850         1        25
  147914         1        25
  292484         1        25
  248634         1        25
   11961         1        25
   31755         1        25
  269213         1        25
  282511         1        25
  534854         1        25
> rid49913
> rid49914
> rid49915
> rid49916
> rid49917
> rid49918
> rid49919
  876323         1        25
> rid49920
> rid49921
> rid49922
> rid49923
> rid49924
> rid49925
 1255680         1        25
> rid49926
> rid49927
> rid49928
> rid49929
> rid49930
> rid49931
> rid49932
  608754         1        25
> rid49933
> rid49934
> rid49935
> rid49936
 1279176         1        25
> rid49937
> rid49938
> rid49939
> rid49940
 1039543         1        25
> rid49941
> rid49942
> rid49943
> rid49944
> rid49945
> rid49946
  573104         1        25
> rid49947
 1281218         1        25
> rid49948
> rid49949
  239353         1        25
> rid49950
 1372039         1        25
> rid49951
> rid49952
> rid49953
> rid49954
> rid49955
> rid49956
 1291612         1        25
> rid49957
> rid49958
> rid49959
> rid49960
> rid49961
   86880         1        25
  745993         1        25
  149944         1        25
  294514         1        25
  250664         1        25
   13991         1        25
   33785         1        25
  536884         1        25
  271243         1        25
  284541         1        25
> rid49962
> rid49963
> rid49964
> rid49965
> rid49966
> rid49967
  725204         1        25
> rid49968
> rid49969
> rid49970
> rid49971
  796444         1        25
> rid49972
> rid49973
> rid49974
> rid49975
  776966         1        25
> rid49976
> rid49977
> rid49978
> rid49979
> rid49980
> rid49981
> rid49982
> rid49983
   69044         1        25
> rid49984
> rid49985
> rid49986
  421351         1        25
> rid49987
> rid49988
  176907         1        25
> rid49989
> rid49990
> rid49991
> rid49992
   95893         1        25
> rid49993
  163834         1        25
> rid49994
> rid49995
  879946         1        25
> rid49996
> rid49997
> rid49998
> rid49999
 1305989         1        25
> rid50000
GPGPU-Sim: exit_simulation called
GPGPU-Sim: simulation thread signaled exit
