

        *** GPGPU-Sim Simulator Version 3.2.2  [build 0] ***


GPGPU-Sim PTX: simulation mode 0 (can change with PTX_SIM_MODE_FUNC environment variable:
               1=functional simulation only, 0=detailed performance simulator)
GPGPU-Sim: Configuration options:

-network_mode                           1 # Interconnection network mode
-inter_config_file   config_fermi_islip.icnt # Interconnection network config file
-gpgpu_ptx_use_cuobjdump                    1 # Use cuobjdump to extract ptx and sass from binaries
-gpgpu_experimental_lib_support                    0 # Try to extract code from cuda libraries [Broken because of unknown cudaGetExportTable]
-gpgpu_ptx_convert_to_ptxplus                    0 # Convert SASS (native ISA) to ptxplus and run ptxplus
-gpgpu_ptx_force_max_capability                   20 # Force maximum compute capability
-gpgpu_ptx_inst_debug_to_file                    0 # Dump executed instructions' debug information to file
-gpgpu_ptx_inst_debug_file       inst_debug.txt # Executed instructions' debug output file
-gpgpu_ptx_inst_debug_thread_uid                    1 # Thread UID for executed instructions' debug output
-gpgpu_simd_model                       1 # 1 = post-dominator
-gpgpu_shader_core_pipeline          1536:256:32 # shader core pipeline config, i.e., {<nthread>:<warpsize>}
-gpgpu_tex_cache:l1  4:128:24,L:R:m:N:L,F:128:4,128:2 # per-shader L1 texture cache  (READ-ONLY) config  {<nsets>:<bsize>:<assoc>,<rep>:<wr>:<alloc>:<wr_alloc>,<mshr>:<N>:<merge>,<mq>:<rf>}
-gpgpu_const_cache:l1 64:64:2,L:R:f:N:L,A:2:32,4 # per-shader L1 constant memory cache  (READ-ONLY) config  {<nsets>:<bsize>:<assoc>,<rep>:<wr>:<alloc>:<wr_alloc>,<mshr>:<N>:<merge>,<mq>} 
-gpgpu_cache:il1     4:128:4,L:R:f:N:L,A:2:32,4 # shader L1 instruction cache config  {<nsets>:<bsize>:<assoc>,<rep>:<wr>:<alloc>:<wr_alloc>,<mshr>:<N>:<merge>,<mq>} 
-gpgpu_cache:dl1     32:128:4,L:L:m:N:H,A:32:8,8 # per-shader L1 data cache config  {<nsets>:<bsize>:<assoc>,<rep>:<wr>:<alloc>:<wr_alloc>,<mshr>:<N>:<merge>,<mq> | none}
-gpgpu_cache:dl1PrefL1                 none # per-shader L1 data cache config  {<nsets>:<bsize>:<assoc>,<rep>:<wr>:<alloc>:<wr_alloc>,<mshr>:<N>:<merge>,<mq> | none}
-gpgpu_cache:dl1PreShared                 none # per-shader L1 data cache config  {<nsets>:<bsize>:<assoc>,<rep>:<wr>:<alloc>:<wr_alloc>,<mshr>:<N>:<merge>,<mq> | none}
-gmem_skip_L1D                          0 # global memory access skip L1D cache (implements -Xptxas -dlcm=cg, default=no skip)
-gpgpu_perfect_mem                      0 # enable perfect memory mode (no cache miss)
-n_regfile_gating_group                    4 # group of lanes that should be read/written together)
-gpgpu_clock_gated_reg_file                    0 # enable clock gated reg file for power calculations
-gpgpu_clock_gated_lanes                    0 # enable clock gated lanes for power calculations
-gpgpu_shader_registers                32768 # Number of registers per shader core. Limits number of concurrent CTAs. (default 8192)
-gpgpu_shader_cta                       8 # Maximum number of concurrent CTAs in shader (default 8)
-gpgpu_num_cta_barriers                   16 # Maximum number of named barriers per CTA (default 16)
-gpgpu_n_clusters                      15 # number of processing clusters
-gpgpu_n_cores_per_cluster                    1 # number of simd cores per cluster
-gpgpu_n_cluster_ejection_buffer_size                    8 # number of packets in ejection buffer
-gpgpu_n_ldst_response_buffer_size                    2 # number of response packets in ld/st unit ejection buffer
-gpgpu_shmem_size                   16384 # Size of shared memory per shader core (default 16kB)
-gpgpu_shmem_size                   49152 # Size of shared memory per shader core (default 16kB)
-gpgpu_shmem_size_PrefL1                16384 # Size of shared memory per shader core (default 16kB)
-gpgpu_shmem_size_PrefShared                16384 # Size of shared memory per shader core (default 16kB)
-gpgpu_shmem_num_banks                   32 # Number of banks in the shared memory in each shader core (default 16)
-gpgpu_shmem_limited_broadcast                    0 # Limit shared memory to do one broadcast per cycle (default on)
-gpgpu_shmem_warp_parts                    1 # Number of portions a warp is divided into for shared memory bank conflict check 
-gpgpu_warpdistro_shader                   -1 # Specify which shader core to collect the warp size distribution from
-gpgpu_warp_issue_shader                    0 # Specify which shader core to collect the warp issue distribution from
-gpgpu_local_mem_map                    1 # Mapping from local memory space address to simulated GPU physical address space (default = enabled)
-gpgpu_num_reg_banks                   16 # Number of register banks (default = 8)
-gpgpu_reg_bank_use_warp_id                    0 # Use warp ID in mapping registers to banks (default = off)
-gpgpu_operand_collector_num_units_sp                    6 # number of collector units (default = 4)
-gpgpu_operand_collector_num_units_sfu                    8 # number of collector units (default = 4)
-gpgpu_operand_collector_num_units_mem                    2 # number of collector units (default = 2)
-gpgpu_operand_collector_num_units_gen                    0 # number of collector units (default = 0)
-gpgpu_operand_collector_num_in_ports_sp                    2 # number of collector unit in ports (default = 1)
-gpgpu_operand_collector_num_in_ports_sfu                    1 # number of collector unit in ports (default = 1)
-gpgpu_operand_collector_num_in_ports_mem                    1 # number of collector unit in ports (default = 1)
-gpgpu_operand_collector_num_in_ports_gen                    0 # number of collector unit in ports (default = 0)
-gpgpu_operand_collector_num_out_ports_sp                    2 # number of collector unit in ports (default = 1)
-gpgpu_operand_collector_num_out_ports_sfu                    1 # number of collector unit in ports (default = 1)
-gpgpu_operand_collector_num_out_ports_mem                    1 # number of collector unit in ports (default = 1)
-gpgpu_operand_collector_num_out_ports_gen                    0 # number of collector unit in ports (default = 0)
-gpgpu_coalesce_arch                   13 # Coalescing arch (default = 13, anything else is off for now)
-gpgpu_num_sched_per_core                    1 # Number of warp schedulers per core
-gpgpu_max_insn_issue_per_warp                    1 # Max number of instructions that can be issued per warp in one cycle by scheduler
-gpgpu_simt_core_sim_order                    1 # Select the simulation order of cores in a cluster (0=Fix, 1=Round-Robin)
-gpgpu_pipeline_widths        2,1,1,2,1,1,2 # Pipeline widths ID_OC_SP,ID_OC_SFU,ID_OC_MEM,OC_EX_SP,OC_EX_SFU,OC_EX_MEM,EX_WB
-gpgpu_num_sp_units                     2 # Number of SP units (default=1)
-gpgpu_num_sfu_units                    1 # Number of SF units (default=1)
-gpgpu_num_mem_units                    1 # Number if ldst units (default=1) WARNING: not hooked up to anything
-gpgpu_scheduler                      gto # Scheduler configuration: < lrr | gto | two_level_active > If two_level_active:<num_active_warps>:<inner_prioritization>:<outer_prioritization>For complete list of prioritization values see shader.h enum scheduler_prioritization_typeDefault: gto
-gpgpu_dram_scheduler                    1 # 0 = fifo, 1 = FR-FCFS (defaul)
-gpgpu_dram_partition_queues              8:8:8:8 # i2$:$2d:d2$:$2i
-l2_ideal                               0 # Use a ideal L2 cache that always hit
-gpgpu_cache:dl2     64:128:8,L:B:m:W:L,A:32:4,4:0,32 # unified banked L2 data cache config  {<nsets>:<bsize>:<assoc>,<rep>:<wr>:<alloc>:<wr_alloc>,<mshr>:<N>:<merge>,<mq>}
-gpgpu_cache:dl2_texture_only                    0 # L2 cache used for texture only
-gpgpu_n_mem                            6 # number of memory modules (e.g. memory controllers) in gpu
-gpgpu_n_sub_partition_per_mchannel                    2 # number of memory subpartition in each memory module
-gpgpu_n_mem_per_ctrlr                    2 # number of memory chips per memory controller
-gpgpu_memlatency_stat                   14 # track and display latency statistics 0x2 enables MC, 0x4 enables queue logs
-gpgpu_frfcfs_dram_sched_queue_size                   16 # 0 = unlimited (default); # entries per chip
-gpgpu_dram_return_queue_size                  116 # 0 = unlimited (default); # entries per chip
-gpgpu_dram_buswidth                    4 # default = 4 bytes (8 bytes per cycle at DDR)
-gpgpu_dram_burst_length                    8 # Burst length of each DRAM request (default = 4 data bus cycle)
-dram_data_command_freq_ratio                    4 # Frequency ratio between DRAM data bus and command bus (default = 2 times, i.e. DDR)
-gpgpu_dram_timing_opt nbk=16:CCD=2:RRD=6:RCD=12:RAS=28:RP=12:RC=40: CL=12:WL=4:CDLR=5:WR=12:nbkgrp=4:CCDL=3:RTPL=2 # DRAM timing parameters = {nbk:tCCD:tRRD:tRCD:tRAS:tRP:tRC:CL:WL:tCDLR:tWR:nbkgrp:tCCDL:tRTPL}
-rop_latency                          120 # ROP queue latency (default 85)
-dram_latency                         100 # DRAM latency (default 30)
-gpgpu_mem_addr_mapping dramid@8;00000000.00000000.00000000.00000000.0000RRRR.RRRRRRRR.BBBCCCCB.CCSSSSSS # mapping memory address to dram model {dramid@<start bit>;<memory address map>}
-gpgpu_mem_addr_test                    0 # run sweep test to check address mapping for aliased address
-gpgpu_mem_address_mask                    1 # 0 = old addressing mask, 1 = new addressing mask, 2 = new add. mask + flipped bank sel and chip sel bits
-gpuwattch_xml_file  gpuwattch_gtx480.xml # GPUWattch XML file
-power_simulation_enabled                    1 # Turn on power simulator (1=On, 0=Off)
-power_per_cycle_dump                    0 # Dump detailed power output each cycle
-power_trace_enabled                    0 # produce a file for the power trace (1=On, 0=Off)
-power_trace_zlevel                     6 # Compression level of the power trace output log (0=no comp, 9=highest)
-steady_power_levels_enabled                    0 # produce a file for the steady power levels (1=On, 0=Off)
-steady_state_definition                  8:4 # allowed deviation:number of samples
-gpgpu_max_cycle                        0 # terminates gpu simulation early (0 = no limit)
-gpgpu_max_insn                         0 # terminates gpu simulation early (0 = no limit)
-gpgpu_max_cta                          0 # terminates gpu simulation early (0 = no limit)
-gpgpu_runtime_stat                   500 # display runtime statistics such as dram utilization {<freq>:<flag>}
-liveness_message_freq                    1 # Minimum number of seconds between simulation liveness messages (0 = always print)
-gpgpu_flush_l1_cache                    0 # Flush L1 cache at the end of each kernel call
-gpgpu_flush_l2_cache                    0 # Flush L2 cache at the end of each kernel call
-gpgpu_deadlock_detect                    1 # Stop the simulation at deadlock (1=on (default), 0=off)
-gpgpu_ptx_instruction_classification                    0 # if enabled will classify ptx instruction types per kernel (Max 255 kernels now)
-gpgpu_ptx_sim_mode                     0 # Select between Performance (default) or Functional simulation (1)
-gpgpu_clock_domains 700.0:700.0:700.0:924.0 # Clock Domain Frequencies in MhZ {<Core Clock>:<ICNT Clock>:<L2 Clock>:<DRAM Clock>}
-gpgpu_max_concurrent_kernel                    8 # maximum kernels that can run concurrently on GPU
-gpgpu_cflog_interval                    0 # Interval between each snapshot in control flow logger
-visualizer_enabled                     0 # Turn on visualizer output (1=On, 0=Off)
-visualizer_outputfile                 NULL # Specifies the output log file for visualizer
-visualizer_zlevel                      6 # Compression level of the visualizer output log (0=no comp, 9=highest)
-trace_enabled                          0 # Turn on traces
-trace_components                    none # comma seperated list of traces to enable. Complete list found in trace_streams.tup. Default none
-trace_sampling_core                    0 # The core which is printed using CORE_DPRINTF. Default 0
-trace_sampling_memory_partition                   -1 # The memory partition which is printed using MEMPART_DPRINTF. Default -1 (i.e. all)
-enable_ptx_file_line_stats                    1 # Turn on PTX source line statistic profiling. (1 = On)
-ptx_line_stats_filename gpgpu_inst_stats.txt # Output file for PTX source line statistics.
-save_embedded_ptx                      0 # saves ptx files embedded in binary as <n>.ptx
-keep                                   0 # keep intermediate files created by GPGPU-Sim when interfacing with external programs
-gpgpu_ptx_save_converted_ptxplus                    0 # Saved converted ptxplus to a file
-ptx_opcode_latency_int         4,13,4,5,145 # Opcode latencies for integers <ADD,MAX,MUL,MAD,DIV>Default 1,1,19,25,145
-ptx_opcode_latency_fp          4,13,4,5,39 # Opcode latencies for single precision floating points <ADD,MAX,MUL,MAD,DIV>Default 1,1,1,1,30
-ptx_opcode_latency_dp         8,19,8,8,330 # Opcode latencies for double precision floating points <ADD,MAX,MUL,MAD,DIV>Default 8,8,8,8,335
-ptx_opcode_initiation_int            1,2,2,1,8 # Opcode initiation intervals for integers <ADD,MAX,MUL,MAD,DIV>Default 1,1,4,4,32
-ptx_opcode_initiation_fp            1,2,1,1,4 # Opcode initiation intervals for single precision floating points <ADD,MAX,MUL,MAD,DIV>Default 1,1,1,1,5
-ptx_opcode_initiation_dp         8,16,8,8,130 # Opcode initiation intervals for double precision floating points <ADD,MAX,MUL,MAD,DIV>Default 8,8,8,8,130
ESHA: SIMD Width was found to be : 32
DRAM Timing Options:
nbk                                    16 # number of banks
CCD                                     2 # column to column delay
RRD                                     6 # minimal delay between activation of rows in different banks
RCD                                    12 # row to column delay
RAS                                    28 # time needed to activate row
RP                                     12 # time needed to precharge (deactivate) row
RC                                     40 # row cycle time
CDLR                                    5 # switching from write to read (changes tWTR)
WR                                     12 # last data-in to row precharge
CL                                     12 # CAS latency
WL                                      4 # Write latency
nbkgrp                                  4 # number of bank groups
CCDL                                    3 # column to column delay between accesses to different bank groups
RTPL                                    2 # read to precharge delay between accesses to different bank groups
Total number of memory sub partition = 12
addr_dec_mask[CHIP]  = 0000000000000000 	high:64 low:0
addr_dec_mask[BK]    = 000000000000e100 	high:16 low:8
addr_dec_mask[ROW]   = 000000000fff0000 	high:28 low:16
addr_dec_mask[COL]   = 0000000000001eff 	high:13 low:0
addr_dec_mask[BURST] = 000000000000003f 	high:6 low:0
sub_partition_id_mask = 0000000000000100
GPGPU-Sim uArch: clock freqs: 700000000.000000:700000000.000000:700000000.000000:924000000.000000
GPGPU-Sim uArch: clock periods: 0.00000000142857142857:0.00000000142857142857:0.00000000142857142857:0.00000000108225108225
ESHA_CHANGED: in shader config simd is  32 
*** Initializing Memory Statistics ***
GPGPU-Sim uArch: interconnect node map (shaderID+MemID to icntID)
GPGPU-Sim uArch: Memory nodes ID start from index: 15
GPGPU-Sim uArch:    0   1   2   3   4
GPGPU-Sim uArch:    5   6   7   8   9
GPGPU-Sim uArch:   10  11  12  13  14
GPGPU-Sim uArch:   15  16  17  18  19
GPGPU-Sim uArch:   20  21  22  23  24
GPGPU-Sim uArch:   25  26
GPGPU-Sim uArch: interconnect node reverse map (icntID to shaderID+MemID)
GPGPU-Sim uArch: Memory nodes start from ID: 15
GPGPU-Sim uArch:    0   1   2   3   4
GPGPU-Sim uArch:    5   6   7   8   9
GPGPU-Sim uArch:   10  11  12  13  14
GPGPU-Sim uArch:   15  16  17  18  19
GPGPU-Sim uArch:   20  21  22  23  24
GPGPU-Sim uArch:   25  26
03b9286cba6ad3de9af5d785bd8bc158  /home/kishore/project_source/gpu_class_proj/gpgpusim-benchmarks-master/bin/release/NN
GPGPU-Sim uArch: performance model initialization complete.
GPGPU-Sim PTX: __cudaRegisterFatBinary, fat_cubin_handle = 1, filename=NN.cu
self exe links to: /home/kishore/project_source/gpu_class_proj/gpgpusim-benchmarks-master/bin/release/NN
Running md5sum using "md5sum /home/kishore/project_source/gpu_class_proj/gpgpusim-benchmarks-master/bin/release/NN "
Running cuobjdump using "$CUDA_INSTALL_PATH/bin/cuobjdump -ptx -elf -sass /home/kishore/project_source/gpu_class_proj/gpgpusim-benchmarks-master/bin/release/NN > _cuobjdump_complete_output_tJSYOF"
Parsing file _cuobjdump_complete_output_tJSYOF
######### cuobjdump parser ########
## Adding new section PTX
Adding ptx filename: _cuobjdump_1.ptx
Adding arch: sm_10
Adding identifier: NN.cu
## Adding new section ELF
Adding arch: sm_10
Adding identifier: NN.cu
## Adding new section ELF
Adding arch: sm_20
Adding identifier: NN.cu
## Adding new section PTX
Adding ptx filename: _cuobjdump_2.ptx
Adding arch: sm_20
Adding identifier: NN.cu
Done parsing!!!
GPGPU-Sim PTX: __cudaRegisterFunction _Z18executeFourthLayerPfS_S_ : hostFun 0x0x4010a0, fat_cubin_handle = 1
GPGPU-Sim PTX: allocating constant region for "kernelTemplate" from 0x100 to 0x164 (global memory space) 1
GPGPU-Sim PTX: instruction assembly for function '_Z17executeFirstLayerPfS_S_'...   done.
GPGPU-Sim PTX: finding reconvergence points for '_Z17executeFirstLayerPfS_S_'...
GPGPU-Sim PTX: Finding dominators for '_Z17executeFirstLayerPfS_S_'...
GPGPU-Sim PTX: Finding immediate dominators for '_Z17executeFirstLayerPfS_S_'...
GPGPU-Sim PTX: Finding postdominators for '_Z17executeFirstLayerPfS_S_'...
GPGPU-Sim PTX: Finding immediate postdominators for '_Z17executeFirstLayerPfS_S_'...
GPGPU-Sim PTX: pre-decoding instructions for '_Z17executeFirstLayerPfS_S_'...
GPGPU-Sim PTX: reconvergence points for _Z17executeFirstLayerPfS_S_...
GPGPU-Sim PTX:  1 (potential) branch divergence @  PC=0x100 (_1.ptx:100) @%p1 bra $Lt_0_4098;
GPGPU-Sim PTX:    immediate post dominator      @  PC=0x108 (_1.ptx:102) cvt.f64.f32 %fd1, %f1;
GPGPU-Sim PTX:  2 (potential) branch divergence @  PC=0x148 (_1.ptx:110) @!%p2 bra $Lt_0_4866;
GPGPU-Sim PTX:    immediate post dominator      @  PC=0x2a8 (_1.ptx:162) cvt.f64.f32 %fd5, %f29;
GPGPU-Sim PTX:  3 (potential) branch divergence @  PC=0x230 (_1.ptx:142) bra.uni $Lt_0_4610;
GPGPU-Sim PTX:    immediate post dominator      @  PC=0x2a8 (_1.ptx:162) cvt.f64.f32 %fd5, %f29;
GPGPU-Sim PTX: ... end of reconvergence points for _Z17executeFirstLayerPfS_S_
GPGPU-Sim PTX: ... done pre-decoding instructions for '_Z17executeFirstLayerPfS_S_'.
GPGPU-Sim PTX: allocating constant region for "kernelTemplate2" from 0x180 to 0x1e4 (global memory space) 2
GPGPU-Sim PTX: instruction assembly for function '_Z18executeSecondLayerPfS_S_'...   done.
GPGPU-Sim PTX: finding reconvergence points for '_Z18executeSecondLayerPfS_S_'...
GPGPU-Sim PTX: Finding dominators for '_Z18executeSecondLayerPfS_S_'...
GPGPU-Sim PTX: Finding immediate dominators for '_Z18executeSecondLayerPfS_S_'...
GPGPU-Sim PTX: Finding postdominators for '_Z18executeSecondLayerPfS_S_'...
GPGPU-Sim PTX: Finding immediate postdominators for '_Z18executeSecondLayerPfS_S_'...
GPGPU-Sim PTX: pre-decoding instructions for '_Z18executeSecondLayerPfS_S_'...
GPGPU-Sim PTX: reconvergence points for _Z18executeSecondLayerPfS_S_...
GPGPU-Sim PTX:  1 (potential) branch divergence @  PC=0x4a0 (_1.ptx:251) @%p1 bra $Lt_1_5634;
GPGPU-Sim PTX:    immediate post dominator      @  PC=0x4a8 (_1.ptx:253) cvt.f64.f32 %fd1, %f1;
GPGPU-Sim PTX:  2 (potential) branch divergence @  PC=0x4e8 (_1.ptx:261) @!%p2 bra $Lt_1_6402;
GPGPU-Sim PTX:    immediate post dominator      @  PC=0x648 (_1.ptx:313) cvt.f64.f32 %fd5, %f44;
GPGPU-Sim PTX:  3 (potential) branch divergence @  PC=0x5d0 (_1.ptx:293) bra.uni $Lt_1_6146;
GPGPU-Sim PTX:    immediate post dominator      @  PC=0x648 (_1.ptx:313) cvt.f64.f32 %fd5, %f44;
GPGPU-Sim PTX: ... end of reconvergence points for _Z18executeSecondLayerPfS_S_
GPGPU-Sim PTX: ... done pre-decoding instructions for '_Z18executeSecondLayerPfS_S_'.
GPGPU-Sim PTX: instruction assembly for function '_Z17executeThirdLayerPfS_S_'...   done.
GPGPU-Sim PTX: finding reconvergence points for '_Z17executeThirdLayerPfS_S_'...
GPGPU-Sim PTX: Finding dominators for '_Z17executeThirdLayerPfS_S_'...
GPGPU-Sim PTX: Finding immediate dominators for '_Z17executeThirdLayerPfS_S_'...
GPGPU-Sim PTX: Finding postdominators for '_Z17executeThirdLayerPfS_S_'...
GPGPU-Sim PTX: Finding immediate postdominators for '_Z17executeThirdLayerPfS_S_'...
GPGPU-Sim PTX: pre-decoding instructions for '_Z17executeThirdLayerPfS_S_'...
GPGPU-Sim PTX: reconvergence points for _Z17executeThirdLayerPfS_S_...
GPGPU-Sim PTX:  1 (potential) branch divergence @  PC=0x788 (_1.ptx:373) @%p1 bra $Lt_2_4098;
GPGPU-Sim PTX:    immediate post dominator      @  PC=0x790 (_1.ptx:375) cvt.f64.f32 %fd1, %f1;
GPGPU-Sim PTX:  2 (potential) branch divergence @  PC=0x7d0 (_1.ptx:383) @!%p2 bra $Lt_2_4866;
GPGPU-Sim PTX:    immediate post dominator      @  PC=0x930 (_1.ptx:435) cvt.f64.f32 %fd5, %f29;
GPGPU-Sim PTX:  3 (potential) branch divergence @  PC=0x8b8 (_1.ptx:415) bra.uni $Lt_2_4610;
GPGPU-Sim PTX:    immediate post dominator      @  PC=0x930 (_1.ptx:435) cvt.f64.f32 %fd5, %f29;
GPGPU-Sim PTX: ... end of reconvergence points for _Z17executeThirdLayerPfS_S_
GPGPU-Sim PTX: ... done pre-decoding instructions for '_Z17executeThirdLayerPfS_S_'.
GPGPU-Sim PTX: instruction assembly for function '_Z18executeFourthLayerPfS_S_'...   done.
GPGPU-Sim PTX: finding reconvergence points for '_Z18executeFourthLayerPfS_S_'...
GPGPU-Sim PTX: Finding dominators for '_Z18executeFourthLayerPfS_S_'...
GPGPU-Sim PTX: Finding immediate dominators for '_Z18executeFourthLayerPfS_S_'...
GPGPU-Sim PTX: Finding postdominators for '_Z18executeFourthLayerPfS_S_'...
GPGPU-Sim PTX: Finding immediate postdominators for '_Z18executeFourthLayerPfS_S_'...
GPGPU-Sim PTX: pre-decoding instructions for '_Z18executeFourthLayerPfS_S_'...
GPGPU-Sim PTX: reconvergence points for _Z18executeFourthLayerPfS_S_...
GPGPU-Sim PTX:  1 (potential) branch divergence @  PC=0xa50 (_1.ptx:491) @%p1 bra $Lt_3_4098;
GPGPU-Sim PTX:    immediate post dominator      @  PC=0xa58 (_1.ptx:493) cvt.f64.f32 %fd1, %f1;
GPGPU-Sim PTX:  2 (potential) branch divergence @  PC=0xa98 (_1.ptx:501) @!%p2 bra $Lt_3_4866;
GPGPU-Sim PTX:    immediate post dominator      @  PC=0xbf8 (_1.ptx:553) cvt.f64.f32 %fd5, %f29;
GPGPU-Sim PTX:  3 (potential) branch divergence @  PC=0xb80 (_1.ptx:533) bra.uni $Lt_3_4610;
GPGPU-Sim PTX:    immediate post dominator      @  PC=0xbf8 (_1.ptx:553) cvt.f64.f32 %fd5, %f29;
GPGPU-Sim PTX: ... end of reconvergence points for _Z18executeFourthLayerPfS_S_
GPGPU-Sim PTX: ... done pre-decoding instructions for '_Z18executeFourthLayerPfS_S_'.
GPGPU-Sim PTX: finished parsing EMBEDDED .ptx file _1.ptx
Adding _cuobjdump_2.ptx with cubin handle 1
GPGPU-Sim PTX: extracting embedded .ptx to temporary file "_ptx_njsNXe"
Running: cat _ptx_njsNXe | sed 's/.version 1.5/.version 1.4/' | sed 's/, texmode_independent//' | sed 's/\(\.extern \.const\[1\] .b8 \w\+\)\[\]/\1\[1\]/' | sed 's/const\[.\]/const\[0\]/g' > _ptx2_je8C6N
GPGPU-Sim PTX: generating ptxinfo using "$CUDA_INSTALL_PATH/bin/ptxas --gpu-name=sm_20 -v _ptx2_je8C6N --output-file  /dev/null 2> _ptx_njsNXeinfo"
GPGPU-Sim PTX: Kernel '_Z18executeFourthLayerPfS_S_' : regs=12, lmem=0, smem=0, cmem=288
GPGPU-Sim PTX: Kernel '_Z17executeThirdLayerPfS_S_' : regs=12, lmem=0, smem=0, cmem=288
GPGPU-Sim PTX: Kernel '_Z18executeSecondLayerPfS_S_' : regs=22, lmem=0, smem=0, cmem=288
GPGPU-Sim PTX: Kernel '_Z17executeFirstLayerPfS_S_' : regs=17, lmem=0, smem=0, cmem=288
GPGPU-Sim PTX: removing ptxinfo using "rm -f _ptx_njsNXe _ptx2_je8C6N _ptx_njsNXeinfo"
GPGPU-Sim PTX: loading globals with explicit initializers... 
GPGPU-Sim PTX: finished loading globals (0 bytes total).
GPGPU-Sim PTX: loading constants with explicit initializers...  done.
GPGPU-Sim PTX: __cudaRegisterFunction _Z17executeThirdLayerPfS_S_ : hostFun 0x0x401130, fat_cubin_handle = 1
GPGPU-Sim PTX: __cudaRegisterFunction _Z18executeSecondLayerPfS_S_ : hostFun 0x0x4011c0, fat_cubin_handle = 1
GPGPU-Sim PTX: __cudaRegisterFunction _Z17executeFirstLayerPfS_S_ : hostFun 0x0x401250, fat_cubin_handle = 1
GPGPU-Sim PTX: __cudaRegisterVar: hostVar = 0x610180; deviceAddress = kernelTemplate; deviceName = kernelTemplate
GPGPU-Sim PTX: __cudaRegisterVar: Registering const memory space of 100 bytes
GPGPU-Sim PTX registering constant kernelTemplate (100 bytes) to name mapping
GPGPU-Sim PTX: __cudaRegisterVar: hostVar = 0x610200; deviceAddress = kernelTemplate2; deviceName = kernelTemplate2
GPGPU-Sim PTX: __cudaRegisterVar: Registering const memory space of 100 bytes
GPGPU-Sim PTX registering constant kernelTemplate2 (100 bytes) to name mapping
magic number = 2051
number of items = 10000
number of rows = 28
number of rows = 28
NUM=28

GPGPU-Sim PTX: cudaLaunch for 0x0x401250 (mode=performance simulation) on stream 0
GPGPU-Sim PTX: pushing kernel '_Z17executeFirstLayerPfS_S_' to stream 0, gridDim= (6,28,1) blockDim = (13,13,1) 
kernel '_Z17executeFirstLayerPfS_S_' transfer to GPU hardware scheduler
GPGPU-Sim uArch: Shader 1 bind to kernel 1 '_Z17executeFirstLayerPfS_S_'
GPGPU-Sim uArch: CTA/core = 6, limited by: threads regs
GPGPU-Sim uArch: core:  1, cta: 0 initialized @(1,0)
GPGPU-Sim uArch: Shader 2 bind to kernel 1 '_Z17executeFirstLayerPfS_S_'
GPGPU-Sim uArch: core:  2, cta: 0 initialized @(1,0)
GPGPU-Sim uArch: Shader 3 bind to kernel 1 '_Z17executeFirstLayerPfS_S_'
GPGPU-Sim uArch: core:  3, cta: 0 initialized @(1,0)
GPGPU-Sim uArch: Shader 4 bind to kernel 1 '_Z17executeFirstLayerPfS_S_'
GPGPU-Sim uArch: core:  4, cta: 0 initialized @(1,0)
GPGPU-Sim uArch: Shader 5 bind to kernel 1 '_Z17executeFirstLayerPfS_S_'
GPGPU-Sim uArch: core:  5, cta: 0 initialized @(1,0)
GPGPU-Sim uArch: Shader 6 bind to kernel 1 '_Z17executeFirstLayerPfS_S_'
GPGPU-Sim uArch: core:  6, cta: 0 initialized @(1,0)
GPGPU-Sim uArch: Shader 7 bind to kernel 1 '_Z17executeFirstLayerPfS_S_'
GPGPU-Sim uArch: core:  7, cta: 0 initialized @(1,0)
GPGPU-Sim uArch: Shader 8 bind to kernel 1 '_Z17executeFirstLayerPfS_S_'
GPGPU-Sim uArch: core:  8, cta: 0 initialized @(1,0)
GPGPU-Sim uArch: Shader 9 bind to kernel 1 '_Z17executeFirstLayerPfS_S_'
GPGPU-Sim uArch: core:  9, cta: 0 initialized @(1,0)
GPGPU-Sim uArch: Shader 10 bind to kernel 1 '_Z17executeFirstLayerPfS_S_'
GPGPU-Sim uArch: core: 10, cta: 0 initialized @(1,0)
GPGPU-Sim uArch: Shader 11 bind to kernel 1 '_Z17executeFirstLayerPfS_S_'
GPGPU-Sim uArch: core: 11, cta: 0 initialized @(1,0)
GPGPU-Sim uArch: Shader 12 bind to kernel 1 '_Z17executeFirstLayerPfS_S_'
GPGPU-Sim uArch: core: 12, cta: 0 initialized @(1,0)
GPGPU-Sim uArch: Shader 13 bind to kernel 1 '_Z17executeFirstLayerPfS_S_'
GPGPU-Sim uArch: core: 13, cta: 0 initialized @(1,0)
GPGPU-Sim uArch: Shader 14 bind to kernel 1 '_Z17executeFirstLayerPfS_S_'
GPGPU-Sim uArch: core: 14, cta: 0 initialized @(1,0)
GPGPU-Sim uArch: Shader 0 bind to kernel 1 '_Z17executeFirstLayerPfS_S_'
GPGPU-Sim uArch: core:  0, cta: 0 initialized @(1,0)
GPGPU-Sim uArch: core:  1, cta: 1 initialized @(2,0)
GPGPU-Sim uArch: core:  2, cta: 1 initialized @(2,0)
GPGPU-Sim uArch: core:  3, cta: 1 initialized @(2,0)
GPGPU-Sim uArch: core:  4, cta: 1 initialized @(2,0)
GPGPU-Sim uArch: core:  5, cta: 1 initialized @(2,0)
GPGPU-Sim uArch: core:  6, cta: 1 initialized @(2,0)
GPGPU-Sim uArch: core:  7, cta: 1 initialized @(2,0)
GPGPU-Sim uArch: core:  8, cta: 1 initialized @(2,0)
GPGPU-Sim uArch: core:  9, cta: 1 initialized @(2,0)
GPGPU-Sim uArch: core: 10, cta: 1 initialized @(2,0)
GPGPU-Sim uArch: core: 11, cta: 1 initialized @(2,0)
GPGPU-Sim uArch: core: 12, cta: 1 initialized @(2,0)
GPGPU-Sim uArch: core: 13, cta: 1 initialized @(2,0)
GPGPU-Sim uArch: core: 14, cta: 1 initialized @(2,0)
GPGPU-Sim uArch: core:  0, cta: 1 initialized @(2,0)
GPGPU-Sim uArch: core:  1, cta: 2 initialized @(3,0)
GPGPU-Sim uArch: core:  2, cta: 2 initialized @(3,0)
GPGPU-Sim uArch: core:  3, cta: 2 initialized @(3,0)
GPGPU-Sim uArch: core:  4, cta: 2 initialized @(3,0)
GPGPU-Sim uArch: core:  5, cta: 2 initialized @(3,0)
GPGPU-Sim uArch: core:  6, cta: 2 initialized @(3,0)
GPGPU-Sim uArch: core:  7, cta: 2 initialized @(3,0)
GPGPU-Sim uArch: core:  8, cta: 2 initialized @(3,0)
GPGPU-Sim uArch: core:  9, cta: 2 initialized @(3,0)
GPGPU-Sim uArch: core: 10, cta: 2 initialized @(3,0)
GPGPU-Sim uArch: core: 11, cta: 2 initialized @(3,0)
GPGPU-Sim uArch: core: 12, cta: 2 initialized @(3,0)
GPGPU-Sim uArch: core: 13, cta: 2 initialized @(3,0)
GPGPU-Sim uArch: core: 14, cta: 2 initialized @(3,0)
GPGPU-Sim uArch: core:  0, cta: 2 initialized @(3,0)
GPGPU-Sim uArch: core:  1, cta: 3 initialized @(4,0)
GPGPU-Sim uArch: core:  2, cta: 3 initialized @(4,0)
GPGPU-Sim uArch: core:  3, cta: 3 initialized @(4,0)
GPGPU-Sim uArch: core:  4, cta: 3 initialized @(4,0)
GPGPU-Sim uArch: core:  5, cta: 3 initialized @(4,0)
GPGPU-Sim uArch: core:  6, cta: 3 initialized @(4,0)
GPGPU-Sim uArch: core:  7, cta: 3 initialized @(4,0)
GPGPU-Sim uArch: core:  8, cta: 3 initialized @(4,0)
GPGPU-Sim uArch: core:  9, cta: 3 initialized @(4,0)
GPGPU-Sim uArch: core: 10, cta: 3 initialized @(4,0)
GPGPU-Sim uArch: core: 11, cta: 3 initialized @(4,0)
GPGPU-Sim uArch: core: 12, cta: 3 initialized @(4,0)
GPGPU-Sim uArch: core: 13, cta: 3 initialized @(4,0)
GPGPU-Sim uArch: core: 14, cta: 3 initialized @(4,0)
GPGPU-Sim uArch: core:  0, cta: 3 initialized @(4,0)
GPGPU-Sim uArch: core:  1, cta: 4 initialized @(5,0)
GPGPU-Sim uArch: core:  2, cta: 4 initialized @(5,0)
GPGPU-Sim uArch: core:  3, cta: 4 initialized @(5,0)
GPGPU-Sim uArch: core:  4, cta: 4 initialized @(5,0)
GPGPU-Sim uArch: core:  5, cta: 4 initialized @(5,0)
GPGPU-Sim uArch: core:  6, cta: 4 initialized @(5,0)
GPGPU-Sim uArch: core:  7, cta: 4 initialized @(5,0)
GPGPU-Sim uArch: core:  8, cta: 4 initialized @(5,0)
GPGPU-Sim uArch: core:  9, cta: 4 initialized @(5,0)
GPGPU-Sim uArch: core: 10, cta: 4 initialized @(5,0)
GPGPU-Sim uArch: core: 11, cta: 4 initialized @(5,0)
GPGPU-Sim uArch: core: 12, cta: 4 initialized @(5,0)
GPGPU-Sim uArch: core: 13, cta: 4 initialized @(5,0)
GPGPU-Sim uArch: core: 14, cta: 4 initialized @(5,0)
GPGPU-Sim uArch: core:  0, cta: 4 initialized @(5,0)
GPGPU-Sim uArch: core:  1, cta: 5 initialized @(6,0)
GPGPU-Sim uArch: core:  2, cta: 5 initialized @(6,0)
GPGPU-Sim uArch: core:  3, cta: 5 initialized @(6,0)
GPGPU-Sim uArch: core:  4, cta: 5 initialized @(6,0)
GPGPU-Sim uArch: core:  5, cta: 5 initialized @(6,0)
GPGPU-Sim uArch: core:  6, cta: 5 initialized @(6,0)
GPGPU-Sim uArch: core:  7, cta: 5 initialized @(6,0)
GPGPU-Sim uArch: core:  8, cta: 5 initialized @(6,0)
GPGPU-Sim uArch: core:  9, cta: 5 initialized @(6,0)
GPGPU-Sim uArch: core: 10, cta: 5 initialized @(6,0)
GPGPU-Sim uArch: core: 11, cta: 5 initialized @(6,0)
GPGPU-Sim uArch: core: 12, cta: 5 initialized @(6,0)
GPGPU-Sim uArch: core: 13, cta: 5 initialized @(6,0)
GPGPU-Sim uArch: core: 14, cta: 5 initialized @(6,0)
GPGPU-Sim uArch: core:  0, cta: 5 initialized @(6,0)
GPGPU-Sim uArch: cycles simulated: 500  inst.: 60840 (ipc=121.7) sim_rate=30420 (inst/sec) elapsed = 0:0:00:02 / Tue May 12 14:54:13 2015
GPGPU-Sim PTX: 100000 instructions simulated : ctaid=(5,2,0) tid=(3,9,0)
GPGPU-Sim PTX: 200000 instructions simulated : ctaid=(2,4,0) tid=(7,5,0)
GPGPU-Sim PTX: 300000 instructions simulated : ctaid=(1,12,0) tid=(11,1,0)
GPGPU-Sim uArch: cycles simulated: 1000  inst.: 286286 (ipc=286.3) sim_rate=57257 (inst/sec) elapsed = 0:0:00:05 / Tue May 12 14:54:16 2015
GPGPU-Sim PTX: 400000 instructions simulated : ctaid=(0,12,0) tid=(2,11,0)
GPGPU-Sim uArch: cycles simulated: 1500  inst.: 385320 (ipc=256.9) sim_rate=55045 (inst/sec) elapsed = 0:0:00:07 / Tue May 12 14:54:18 2015
GPGPU-Sim uArch: cycles simulated: 2000  inst.: 404417 (ipc=202.2) sim_rate=50552 (inst/sec) elapsed = 0:0:00:08 / Tue May 12 14:54:19 2015
GPGPU-Sim uArch: cycles simulated: 2500  inst.: 437710 (ipc=175.1) sim_rate=48634 (inst/sec) elapsed = 0:0:00:09 / Tue May 12 14:54:20 2015
GPGPU-Sim PTX: 500000 instructions simulated : ctaid=(4,8,0) tid=(6,7,0)
GPGPU-Sim uArch: cycles simulated: 3000  inst.: 535054 (ipc=178.4) sim_rate=48641 (inst/sec) elapsed = 0:0:00:11 / Tue May 12 14:54:22 2015
GPGPU-Sim PTX: 600000 instructions simulated : ctaid=(1,14,0) tid=(10,3,0)
GPGPU-Sim uArch: cycles simulated: 3500  inst.: 650312 (ipc=185.8) sim_rate=50024 (inst/sec) elapsed = 0:0:00:13 / Tue May 12 14:54:24 2015
GPGPU-Sim PTX: 700000 instructions simulated : ctaid=(5,6,0) tid=(1,0,0)
GPGPU-Sim PTX: 800000 instructions simulated : ctaid=(1,11,0) tid=(5,9,0)
GPGPU-Sim uArch: cycles simulated: 4000  inst.: 790582 (ipc=197.6) sim_rate=49411 (inst/sec) elapsed = 0:0:00:16 / Tue May 12 14:54:27 2015
GPGPU-Sim PTX: 900000 instructions simulated : ctaid=(4,3,0) tid=(9,5,0)
GPGPU-Sim uArch: cycles simulated: 4500  inst.: 919191 (ipc=204.3) sim_rate=51066 (inst/sec) elapsed = 0:0:00:18 / Tue May 12 14:54:29 2015
GPGPU-Sim PTX: 1000000 instructions simulated : ctaid=(3,4,0) tid=(0,2,0)
GPGPU-Sim uArch: cycles simulated: 5000  inst.: 1050504 (ipc=210.1) sim_rate=52525 (inst/sec) elapsed = 0:0:00:20 / Tue May 12 14:54:31 2015
GPGPU-Sim PTX: 1100000 instructions simulated : ctaid=(1,8,0) tid=(4,11,0)
GPGPU-Sim uArch: cycles simulated: 5500  inst.: 1166607 (ipc=212.1) sim_rate=53027 (inst/sec) elapsed = 0:0:00:22 / Tue May 12 14:54:33 2015
GPGPU-Sim PTX: 1200000 instructions simulated : ctaid=(3,13,0) tid=(8,7,0)
GPGPU-Sim uArch: cycles simulated: 6000  inst.: 1280682 (ipc=213.4) sim_rate=51227 (inst/sec) elapsed = 0:0:00:25 / Tue May 12 14:54:36 2015
GPGPU-Sim PTX: 1300000 instructions simulated : ctaid=(2,10,0) tid=(12,3,0)
GPGPU-Sim PTX: 1400000 instructions simulated : ctaid=(3,4,0) tid=(3,0,0)
GPGPU-Sim uArch: cycles simulated: 6500  inst.: 1397799 (ipc=215.0) sim_rate=51770 (inst/sec) elapsed = 0:0:00:27 / Tue May 12 14:54:38 2015
GPGPU-Sim PTX: 1500000 instructions simulated : ctaid=(0,8,0) tid=(7,9,0)
GPGPU-Sim uArch: cycles simulated: 7000  inst.: 1517958 (ipc=216.9) sim_rate=52343 (inst/sec) elapsed = 0:0:00:29 / Tue May 12 14:54:40 2015
GPGPU-Sim PTX: 1600000 instructions simulated : ctaid=(1,11,0) tid=(11,5,0)
GPGPU-Sim uArch: cycles simulated: 7500  inst.: 1644708 (ipc=219.3) sim_rate=53055 (inst/sec) elapsed = 0:0:00:31 / Tue May 12 14:54:42 2015
GPGPU-Sim PTX: 1700000 instructions simulated : ctaid=(4,2,0) tid=(2,2,0)
GPGPU-Sim uArch: cycles simulated: 8000  inst.: 1770951 (ipc=221.4) sim_rate=52086 (inst/sec) elapsed = 0:0:00:34 / Tue May 12 14:54:45 2015
GPGPU-Sim PTX: 1800000 instructions simulated : ctaid=(1,1,0) tid=(6,11,0)
GPGPU-Sim PTX: 1900000 instructions simulated : ctaid=(4,3,0) tid=(10,7,0)
GPGPU-Sim uArch: cycles simulated: 8500  inst.: 1907503 (ipc=224.4) sim_rate=52986 (inst/sec) elapsed = 0:0:00:36 / Tue May 12 14:54:47 2015
GPGPU-Sim PTX: 2000000 instructions simulated : ctaid=(0,7,0) tid=(1,4,0)
GPGPU-Sim uArch: cycles simulated: 9000  inst.: 2030366 (ipc=225.6) sim_rate=53430 (inst/sec) elapsed = 0:0:00:38 / Tue May 12 14:54:49 2015
GPGPU-Sim PTX: 2100000 instructions simulated : ctaid=(2,10,0) tid=(5,0,0)
GPGPU-Sim uArch: cycles simulated: 9500  inst.: 2148328 (ipc=226.1) sim_rate=52398 (inst/sec) elapsed = 0:0:00:41 / Tue May 12 14:54:52 2015
GPGPU-Sim PTX: 2200000 instructions simulated : ctaid=(1,7,0) tid=(9,9,0)
GPGPU-Sim uArch: cycles simulated: 10000  inst.: 2256150 (ipc=225.6) sim_rate=52468 (inst/sec) elapsed = 0:0:00:43 / Tue May 12 14:54:54 2015
GPGPU-Sim PTX: 2300000 instructions simulated : ctaid=(5,14,0) tid=(0,6,0)
GPGPU-Sim PTX: 2400000 instructions simulated : ctaid=(4,12,0) tid=(4,2,0)
GPGPU-Sim uArch: cycles simulated: 10500  inst.: 2410447 (ipc=229.6) sim_rate=53565 (inst/sec) elapsed = 0:0:00:45 / Tue May 12 14:54:56 2015
GPGPU-Sim PTX: 2500000 instructions simulated : ctaid=(1,3,0) tid=(8,11,0)
GPGPU-Sim uArch: cycles simulated: 11000  inst.: 2555956 (ipc=232.4) sim_rate=53249 (inst/sec) elapsed = 0:0:00:48 / Tue May 12 14:54:59 2015
GPGPU-Sim PTX: 2600000 instructions simulated : ctaid=(2,4,0) tid=(12,7,0)
GPGPU-Sim uArch: cycles simulated: 11500  inst.: 2677636 (ipc=232.8) sim_rate=53552 (inst/sec) elapsed = 0:0:00:50 / Tue May 12 14:55:01 2015
GPGPU-Sim PTX: 2700000 instructions simulated : ctaid=(2,0,0) tid=(3,4,0)
GPGPU-Sim PTX: 2800000 instructions simulated : ctaid=(3,5,0) tid=(7,0,0)
GPGPU-Sim uArch: cycles simulated: 12000  inst.: 2794584 (ipc=232.9) sim_rate=53742 (inst/sec) elapsed = 0:0:00:52 / Tue May 12 14:55:03 2015
GPGPU-Sim PTX: 2900000 instructions simulated : ctaid=(2,14,0) tid=(11,9,0)
GPGPU-Sim uArch: cycles simulated: 12500  inst.: 2910856 (ipc=232.9) sim_rate=53904 (inst/sec) elapsed = 0:0:00:54 / Tue May 12 14:55:05 2015
GPGPU-Sim PTX: 3000000 instructions simulated : ctaid=(5,6,0) tid=(2,6,0)
GPGPU-Sim uArch: cycles simulated: 13000  inst.: 3027297 (ipc=232.9) sim_rate=54058 (inst/sec) elapsed = 0:0:00:56 / Tue May 12 14:55:07 2015
GPGPU-Sim PTX: 3100000 instructions simulated : ctaid=(0,8,0) tid=(6,2,0)
GPGPU-Sim uArch: cycles simulated: 13500  inst.: 3153371 (ipc=233.6) sim_rate=53446 (inst/sec) elapsed = 0:0:00:59 / Tue May 12 14:55:10 2015
GPGPU-Sim PTX: 3200000 instructions simulated : ctaid=(0,7,0) tid=(10,11,0)
GPGPU-Sim uArch: cycles simulated: 14000  inst.: 3272516 (ipc=233.8) sim_rate=53647 (inst/sec) elapsed = 0:0:01:01 / Tue May 12 14:55:12 2015
GPGPU-Sim PTX: 3300000 instructions simulated : ctaid=(2,10,0) tid=(1,8,0)
GPGPU-Sim PTX: 3400000 instructions simulated : ctaid=(3,11,0) tid=(5,4,0)
GPGPU-Sim uArch: cycles simulated: 14500  inst.: 3387605 (ipc=233.6) sim_rate=53771 (inst/sec) elapsed = 0:0:01:03 / Tue May 12 14:55:14 2015
GPGPU-Sim PTX: 3500000 instructions simulated : ctaid=(2,4,0) tid=(9,0,0)
GPGPU-Sim uArch: cycles simulated: 15000  inst.: 3497962 (ipc=233.2) sim_rate=53814 (inst/sec) elapsed = 0:0:01:05 / Tue May 12 14:55:16 2015
GPGPU-Sim PTX: 3600000 instructions simulated : ctaid=(5,5,0) tid=(0,10,0)
GPGPU-Sim uArch: cycles simulated: 15500  inst.: 3607643 (ipc=232.8) sim_rate=53053 (inst/sec) elapsed = 0:0:01:08 / Tue May 12 14:55:19 2015
GPGPU-Sim PTX: 3700000 instructions simulated : ctaid=(2,2,0) tid=(4,6,0)
GPGPU-Sim uArch: cycles simulated: 16000  inst.: 3709719 (ipc=231.9) sim_rate=52995 (inst/sec) elapsed = 0:0:01:10 / Tue May 12 14:55:21 2015
GPGPU-Sim PTX: 3800000 instructions simulated : ctaid=(4,10,0) tid=(8,2,0)
GPGPU-Sim uArch: cycles simulated: 16500  inst.: 3847116 (ipc=233.2) sim_rate=53432 (inst/sec) elapsed = 0:0:01:12 / Tue May 12 14:55:23 2015
GPGPU-Sim PTX: 3900000 instructions simulated : ctaid=(4,9,0) tid=(12,11,0)
GPGPU-Sim uArch: cycles simulated: 17000  inst.: 3963726 (ipc=233.2) sim_rate=53563 (inst/sec) elapsed = 0:0:01:14 / Tue May 12 14:55:25 2015
GPGPU-Sim PTX: 4000000 instructions simulated : ctaid=(0,11,0) tid=(3,8,0)
GPGPU-Sim uArch: cycles simulated: 17500  inst.: 4075097 (ipc=232.9) sim_rate=53619 (inst/sec) elapsed = 0:0:01:16 / Tue May 12 14:55:27 2015
GPGPU-Sim PTX: 4100000 instructions simulated : ctaid=(0,9,0) tid=(7,4,0)
GPGPU-Sim PTX: 4200000 instructions simulated : ctaid=(0,0,0) tid=(11,0,0)
GPGPU-Sim uArch: cycles simulated: 18000  inst.: 4208607 (ipc=233.8) sim_rate=53956 (inst/sec) elapsed = 0:0:01:18 / Tue May 12 14:55:29 2015
GPGPU-Sim PTX: 4300000 instructions simulated : ctaid=(0,8,0) tid=(2,10,0)
GPGPU-Sim uArch: cycles simulated: 18500  inst.: 4332315 (ipc=234.2) sim_rate=53485 (inst/sec) elapsed = 0:0:01:21 / Tue May 12 14:55:32 2015
GPGPU-Sim PTX: 4400000 instructions simulated : ctaid=(3,13,0) tid=(6,6,0)
GPGPU-Sim uArch: cycles simulated: 19000  inst.: 4464135 (ipc=235.0) sim_rate=53784 (inst/sec) elapsed = 0:0:01:23 / Tue May 12 14:55:34 2015
GPGPU-Sim PTX: 4500000 instructions simulated : ctaid=(2,11,0) tid=(10,2,0)
GPGPU-Sim PTX: 4600000 instructions simulated : ctaid=(3,4,0) tid=(1,12,0)
GPGPU-Sim uArch: cycles simulated: 19500  inst.: 4610489 (ipc=236.4) sim_rate=54241 (inst/sec) elapsed = 0:0:01:25 / Tue May 12 14:55:36 2015
GPGPU-Sim PTX: 4700000 instructions simulated : ctaid=(0,4,0) tid=(5,8,0)
GPGPU-Sim uArch: cycles simulated: 20000  inst.: 4728282 (ipc=236.4) sim_rate=54348 (inst/sec) elapsed = 0:0:01:27 / Tue May 12 14:55:38 2015
GPGPU-Sim PTX: 4800000 instructions simulated : ctaid=(5,6,0) tid=(9,4,0)
GPGPU-Sim uArch: cycles simulated: 20500  inst.: 4862373 (ipc=237.2) sim_rate=54026 (inst/sec) elapsed = 0:0:01:30 / Tue May 12 14:55:41 2015
GPGPU-Sim PTX: 4900000 instructions simulated : ctaid=(4,12,0) tid=(0,1,0)
GPGPU-Sim PTX: 5000000 instructions simulated : ctaid=(0,5,0) tid=(7,7,0)
GPGPU-Sim uArch: cycles simulated: 21000  inst.: 5003382 (ipc=238.3) sim_rate=54384 (inst/sec) elapsed = 0:0:01:32 / Tue May 12 14:55:43 2015
GPGPU-Sim PTX: 5100000 instructions simulated : ctaid=(3,3,0) tid=(6,9,0)
GPGPU-Sim uArch: cycles simulated: 21500  inst.: 5144275 (ipc=239.3) sim_rate=54726 (inst/sec) elapsed = 0:0:01:34 / Tue May 12 14:55:45 2015
GPGPU-Sim PTX: 5200000 instructions simulated : ctaid=(4,1,0) tid=(12,7,0)
GPGPU-Sim PTX: 5300000 instructions simulated : ctaid=(0,2,0) tid=(12,6,0)
GPGPU-Sim uArch: cycles simulated: 22000  inst.: 5341644 (ipc=242.8) sim_rate=55068 (inst/sec) elapsed = 0:0:01:37 / Tue May 12 14:55:48 2015
GPGPU-Sim PTX: 5400000 instructions simulated : ctaid=(1,5,0) tid=(12,9,0)
GPGPU-Sim PTX: 5500000 instructions simulated : ctaid=(5,8,0) tid=(9,10,0)
GPGPU-Sim uArch: Shader 7 finished CTA #1 (22486,0), 5 CTAs running
GPGPU-Sim uArch: core:  7, cta: 1 initialized @(22487,0)
GPGPU-Sim uArch: Shader 7 finished CTA #2 (22490,0), 5 CTAs running
GPGPU-Sim uArch: core:  7, cta: 2 initialized @(22491,0)
GPGPU-Sim uArch: cycles simulated: 22500  inst.: 5519884 (ipc=245.3) sim_rate=55198 (inst/sec) elapsed = 0:0:01:40 / Tue May 12 14:55:51 2015
GPGPU-Sim uArch: Shader 4 finished CTA #0 (22500,0), 5 CTAs running
GPGPU-Sim uArch: core:  4, cta: 0 initialized @(22501,0)
GPGPU-Sim PTX: 5600000 instructions simulated : ctaid=(3,1,0) tid=(7,0,0)
GPGPU-Sim uArch: Shader 7 finished CTA #5 (22584,0), 5 CTAs running
GPGPU-Sim uArch: core:  7, cta: 5 initialized @(22585,0)
GPGPU-Sim uArch: Shader 4 finished CTA #1 (22732,0), 5 CTAs running
GPGPU-Sim uArch: core:  4, cta: 1 initialized @(22733,0)
GPGPU-Sim uArch: Shader 4 finished CTA #3 (22752,0), 5 CTAs running
GPGPU-Sim uArch: core:  4, cta: 3 initialized @(22753,0)
GPGPU-Sim uArch: Shader 10 finished CTA #3 (22778,0), 5 CTAs running
GPGPU-Sim uArch: core: 10, cta: 3 initialized @(22779,0)
GPGPU-Sim PTX: 5700000 instructions simulated : ctaid=(2,11,0) tid=(11,5,0)
GPGPU-Sim uArch: Shader 4 finished CTA #2 (22820,0), 5 CTAs running
GPGPU-Sim uArch: core:  4, cta: 2 initialized @(22821,0)
GPGPU-Sim uArch: Shader 4 finished CTA #4 (22838,0), 5 CTAs running
GPGPU-Sim uArch: core:  4, cta: 4 initialized @(22839,0)
GPGPU-Sim uArch: Shader 7 finished CTA #3 (22912,0), 5 CTAs running
GPGPU-Sim uArch: core:  7, cta: 3 initialized @(22913,0)
GPGPU-Sim uArch: Shader 4 finished CTA #5 (22918,0), 5 CTAs running
GPGPU-Sim uArch: core:  4, cta: 5 initialized @(22919,0)
GPGPU-Sim PTX: 5800000 instructions simulated : ctaid=(4,5,0) tid=(12,9,0)
GPGPU-Sim uArch: Shader 7 finished CTA #4 (22941,0), 5 CTAs running
GPGPU-Sim uArch: core:  7, cta: 4 initialized @(22942,0)
GPGPU-Sim uArch: Shader 7 finished CTA #0 (22975,0), 5 CTAs running
GPGPU-Sim uArch: core:  7, cta: 0 initialized @(22976,0)
GPGPU-Sim uArch: cycles simulated: 23000  inst.: 5815200 (ipc=252.8) sim_rate=55915 (inst/sec) elapsed = 0:0:01:44 / Tue May 12 14:55:55 2015
GPGPU-Sim PTX: 5900000 instructions simulated : ctaid=(4,5,0) tid=(5,12,0)
GPGPU-Sim uArch: Shader 8 finished CTA #0 (23255,0), 5 CTAs running
GPGPU-Sim uArch: core:  8, cta: 0 initialized @(23256,0)
GPGPU-Sim uArch: Shader 10 finished CTA #0 (23275,0), 5 CTAs running
GPGPU-Sim uArch: core: 10, cta: 0 initialized @(23276,0)
GPGPU-Sim uArch: Shader 8 finished CTA #2 (23297,0), 5 CTAs running
GPGPU-Sim uArch: core:  8, cta: 2 initialized @(23298,0)
GPGPU-Sim uArch: Shader 6 finished CTA #0 (23315,0), 5 CTAs running
GPGPU-Sim uArch: core:  6, cta: 0 initialized @(23316,0)
GPGPU-Sim uArch: Shader 6 finished CTA #3 (23321,0), 5 CTAs running
GPGPU-Sim uArch: core:  6, cta: 3 initialized @(23322,0)
GPGPU-Sim PTX: 6000000 instructions simulated : ctaid=(1,4,0) tid=(11,3,0)
GPGPU-Sim uArch: Shader 6 finished CTA #1 (23361,0), 5 CTAs running
GPGPU-Sim uArch: core:  6, cta: 1 initialized @(23362,0)
GPGPU-Sim uArch: Shader 6 finished CTA #2 (23363,0), 5 CTAs running
GPGPU-Sim uArch: core:  6, cta: 2 initialized @(23364,0)
GPGPU-Sim uArch: Shader 8 finished CTA #3 (23425,0), 5 CTAs running
GPGPU-Sim uArch: core:  8, cta: 3 initialized @(23426,0)
GPGPU-Sim uArch: Shader 8 finished CTA #1 (23437,0), 5 CTAs running
GPGPU-Sim uArch: core:  8, cta: 1 initialized @(23438,0)
GPGPU-Sim uArch: Shader 8 finished CTA #4 (23441,0), 5 CTAs running
GPGPU-Sim uArch: core:  8, cta: 4 initialized @(23442,0)
GPGPU-Sim uArch: Shader 8 finished CTA #5 (23449,0), 5 CTAs running
GPGPU-Sim uArch: core:  8, cta: 5 initialized @(23450,0)
GPGPU-Sim uArch: Shader 6 finished CTA #5 (23487,0), 5 CTAs running
GPGPU-Sim uArch: core:  6, cta: 5 initialized @(23488,0)
GPGPU-Sim uArch: cycles simulated: 23500  inst.: 6067764 (ipc=258.2) sim_rate=56183 (inst/sec) elapsed = 0:0:01:48 / Tue May 12 14:55:59 2015
GPGPU-Sim PTX: 6100000 instructions simulated : ctaid=(1,16,0) tid=(9,11,0)
GPGPU-Sim uArch: Shader 5 finished CTA #1 (23547,0), 5 CTAs running
GPGPU-Sim uArch: core:  5, cta: 1 initialized @(23548,0)
GPGPU-Sim uArch: Shader 6 finished CTA #4 (23593,0), 5 CTAs running
GPGPU-Sim uArch: core:  6, cta: 4 initialized @(23594,0)
GPGPU-Sim uArch: Shader 5 finished CTA #4 (23605,0), 5 CTAs running
GPGPU-Sim uArch: core:  5, cta: 4 initialized @(23606,0)
GPGPU-Sim uArch: Shader 9 finished CTA #2 (23615,0), 5 CTAs running
GPGPU-Sim uArch: core:  9, cta: 2 initialized @(23616,0)
GPGPU-Sim uArch: Shader 5 finished CTA #2 (23625,0), 5 CTAs running
GPGPU-Sim uArch: core:  5, cta: 2 initialized @(23626,0)
GPGPU-Sim uArch: Shader 9 finished CTA #4 (23639,0), 5 CTAs running
GPGPU-Sim uArch: core:  9, cta: 4 initialized @(23640,0)
GPGPU-Sim uArch: Shader 9 finished CTA #3 (23647,0), 5 CTAs running
GPGPU-Sim uArch: core:  9, cta: 3 initialized @(23648,0)
GPGPU-Sim uArch: Shader 5 finished CTA #0 (23655,0), 5 CTAs running
GPGPU-Sim uArch: core:  5, cta: 0 initialized @(23656,0)
GPGPU-Sim uArch: Shader 9 finished CTA #0 (23674,0), 5 CTAs running
GPGPU-Sim uArch: core:  9, cta: 0 initialized @(23675,0)
GPGPU-Sim PTX: 6200000 instructions simulated : ctaid=(0,10,0) tid=(2,8,0)
GPGPU-Sim uArch: Shader 5 finished CTA #3 (23703,0), 5 CTAs running
GPGPU-Sim uArch: core:  5, cta: 3 initialized @(23704,0)
GPGPU-Sim uArch: Shader 10 finished CTA #1 (23725,0), 5 CTAs running
GPGPU-Sim uArch: core: 10, cta: 1 initialized @(23726,0)
GPGPU-Sim uArch: Shader 9 finished CTA #1 (23739,0), 5 CTAs running
GPGPU-Sim uArch: core:  9, cta: 1 initialized @(23740,0)
GPGPU-Sim uArch: Shader 10 finished CTA #4 (23795,0), 5 CTAs running
GPGPU-Sim uArch: core: 10, cta: 4 initialized @(23796,0)
GPGPU-Sim uArch: Shader 10 finished CTA #2 (23799,0), 5 CTAs running
GPGPU-Sim uArch: core: 10, cta: 2 initialized @(23800,0)
GPGPU-Sim uArch: Shader 9 finished CTA #5 (23801,0), 5 CTAs running
GPGPU-Sim uArch: core:  9, cta: 5 initialized @(23802,0)
GPGPU-Sim PTX: 6300000 instructions simulated : ctaid=(2,7,0) tid=(9,3,0)
GPGPU-Sim uArch: Shader 13 finished CTA #3 (23813,0), 5 CTAs running
GPGPU-Sim uArch: core: 13, cta: 3 initialized @(23814,0)
GPGPU-Sim uArch: Shader 5 finished CTA #5 (23823,0), 5 CTAs running
GPGPU-Sim uArch: core:  5, cta: 5 initialized @(23824,0)
GPGPU-Sim uArch: Shader 13 finished CTA #0 (23837,0), 5 CTAs running
GPGPU-Sim uArch: core: 13, cta: 0 initialized @(23838,0)
GPGPU-Sim uArch: Shader 13 finished CTA #2 (23865,0), 5 CTAs running
GPGPU-Sim uArch: core: 13, cta: 2 initialized @(23866,0)
GPGPU-Sim uArch: Shader 13 finished CTA #4 (23876,0), 5 CTAs running
GPGPU-Sim uArch: core: 13, cta: 4 initialized @(23877,0)
GPGPU-Sim PTX: 6400000 instructions simulated : ctaid=(0,16,0) tid=(5,12,0)
GPGPU-Sim uArch: Shader 13 finished CTA #5 (23926,0), 5 CTAs running
GPGPU-Sim uArch: core: 13, cta: 5 initialized @(23927,0)
GPGPU-Sim uArch: Shader 12 finished CTA #2 (23943,0), 5 CTAs running
GPGPU-Sim uArch: core: 12, cta: 2 initialized @(23944,0)
GPGPU-Sim uArch: Shader 13 finished CTA #1 (23963,0), 5 CTAs running
GPGPU-Sim uArch: core: 13, cta: 1 initialized @(23964,0)
GPGPU-Sim uArch: Shader 12 finished CTA #1 (23972,0), 5 CTAs running
GPGPU-Sim uArch: core: 12, cta: 1 initialized @(23973,0)
GPGPU-Sim uArch: cycles simulated: 24000  inst.: 6435998 (ipc=268.2) sim_rate=56955 (inst/sec) elapsed = 0:0:01:53 / Tue May 12 14:56:04 2015
GPGPU-Sim PTX: 6500000 instructions simulated : ctaid=(5,18,0) tid=(4,0,0)
GPGPU-Sim uArch: Shader 12 finished CTA #5 (24097,0), 5 CTAs running
GPGPU-Sim uArch: core: 12, cta: 5 initialized @(24098,0)
GPGPU-Sim uArch: Shader 10 finished CTA #5 (24121,0), 5 CTAs running
GPGPU-Sim uArch: core: 10, cta: 5 initialized @(24122,0)
GPGPU-Sim uArch: Shader 12 finished CTA #0 (24137,0), 5 CTAs running
GPGPU-Sim uArch: core: 12, cta: 0 initialized @(24138,0)
GPGPU-Sim uArch: Shader 12 finished CTA #3 (24147,0), 5 CTAs running
GPGPU-Sim uArch: core: 12, cta: 3 initialized @(24148,0)
GPGPU-Sim PTX: 6600000 instructions simulated : ctaid=(5,9,0) tid=(7,3,0)
GPGPU-Sim uArch: Shader 12 finished CTA #4 (24217,0), 5 CTAs running
GPGPU-Sim uArch: core: 12, cta: 4 initialized @(24218,0)
GPGPU-Sim uArch: Shader 2 finished CTA #0 (24361,0), 5 CTAs running
GPGPU-Sim uArch: core:  2, cta: 0 initialized @(24362,0)
GPGPU-Sim PTX: 6700000 instructions simulated : ctaid=(0,17,0) tid=(5,2,0)
GPGPU-Sim uArch: Shader 2 finished CTA #2 (24485,0), 5 CTAs running
GPGPU-Sim uArch: core:  2, cta: 2 initialized @(24486,0)
GPGPU-Sim uArch: cycles simulated: 24500  inst.: 6760380 (ipc=275.9) sim_rate=57781 (inst/sec) elapsed = 0:0:01:57 / Tue May 12 14:56:08 2015
GPGPU-Sim PTX: 6800000 instructions simulated : ctaid=(3,23,0) tid=(5,5,0)
GPGPU-Sim uArch: Shader 2 finished CTA #1 (24533,0), 5 CTAs running
GPGPU-Sim uArch: core:  2, cta: 1 initialized @(24534,0)
GPGPU-Sim uArch: Shader 2 finished CTA #3 (24545,0), 5 CTAs running
GPGPU-Sim uArch: core:  2, cta: 3 initialized @(24546,0)
GPGPU-Sim uArch: Shader 11 finished CTA #1 (24549,0), 5 CTAs running
GPGPU-Sim uArch: core: 11, cta: 1 initialized @(24550,0)
GPGPU-Sim uArch: Shader 2 finished CTA #4 (24553,0), 5 CTAs running
GPGPU-Sim uArch: core:  2, cta: 4 initialized @(24554,0)
GPGPU-Sim uArch: Shader 2 finished CTA #5 (24555,0), 5 CTAs running
GPGPU-Sim uArch: core:  2, cta: 5 initialized @(24556,0)
GPGPU-Sim uArch: Shader 11 finished CTA #0 (24575,0), 5 CTAs running
GPGPU-Sim uArch: core: 11, cta: 0 initialized @(24576,0)
GPGPU-Sim PTX: 6900000 instructions simulated : ctaid=(4,20,0) tid=(9,1,0)
GPGPU-Sim uArch: Shader 11 finished CTA #2 (24627,0), 5 CTAs running
GPGPU-Sim uArch: core: 11, cta: 2 initialized @(24628,0)
GPGPU-Sim uArch: Shader 11 finished CTA #3 (24650,0), 5 CTAs running
GPGPU-Sim uArch: core: 11, cta: 3 initialized @(24651,0)
GPGPU-Sim uArch: Shader 11 finished CTA #5 (24719,0), 5 CTAs running
GPGPU-Sim uArch: core: 11, cta: 5 initialized @(24720,0)
GPGPU-Sim uArch: Shader 11 finished CTA #4 (24725,0), 5 CTAs running
GPGPU-Sim uArch: core: 11, cta: 4 initialized @(24726,0)
GPGPU-Sim PTX: 7000000 instructions simulated : ctaid=(0,25,0) tid=(0,11,0)
GPGPU-Sim uArch: Shader 3 finished CTA #2 (24878,0), 5 CTAs running
GPGPU-Sim uArch: core:  3, cta: 2 initialized @(24879,0)
GPGPU-Sim PTX: 7100000 instructions simulated : ctaid=(2,15,0) tid=(4,7,0)
GPGPU-Sim uArch: Shader 0 finished CTA #1 (24900,0), 5 CTAs running
GPGPU-Sim uArch: Shader 14 finished CTA #0 (24900,0), 5 CTAs running
GPGPU-Sim uArch: core: 14, cta: 0 initialized @(24901,0)
GPGPU-Sim uArch: core:  0, cta: 1 initialized @(24901,0)
GPGPU-Sim uArch: Shader 0 finished CTA #0 (24936,0), 5 CTAs running
GPGPU-Sim uArch: core:  0, cta: 0 initialized @(24937,0)
GPGPU-Sim uArch: Shader 1 finished CTA #2 (24941,0), 5 CTAs running
GPGPU-Sim uArch: core:  1, cta: 2 initialized @(24942,0)
GPGPU-Sim uArch: Shader 3 finished CTA #1 (24960,0), 5 CTAs running
GPGPU-Sim uArch: core:  3, cta: 1 initialized @(24961,0)
GPGPU-Sim uArch: Shader 1 finished CTA #1 (24978,0), 5 CTAs running
GPGPU-Sim uArch: core:  1, cta: 1 initialized @(24979,0)
GPGPU-Sim uArch: Shader 3 finished CTA #0 (24980,0), 5 CTAs running
GPGPU-Sim uArch: core:  3, cta: 0 initialized @(24981,0)
GPGPU-Sim uArch: Shader 14 finished CTA #2 (24986,0), 5 CTAs running
GPGPU-Sim uArch: core: 14, cta: 2 initialized @(24987,0)
GPGPU-Sim uArch: cycles simulated: 25000  inst.: 7145193 (ipc=285.8) sim_rate=58567 (inst/sec) elapsed = 0:0:02:02 / Tue May 12 14:56:13 2015
GPGPU-Sim uArch: Shader 0 finished CTA #2 (25000,0), 5 CTAs running
GPGPU-Sim uArch: core:  0, cta: 2 initialized @(25001,0)
GPGPU-Sim uArch: Shader 1 finished CTA #0 (25003,0), 5 CTAs running
GPGPU-Sim uArch: core:  1, cta: 0 initialized @(25004,0)
GPGPU-Sim uArch: Shader 0 finished CTA #4 (25011,0), 5 CTAs running
GPGPU-Sim uArch: core:  0, cta: 4 initialized @(25012,0)
GPGPU-Sim PTX: 7200000 instructions simulated : ctaid=(3,27,0) tid=(8,3,0)
GPGPU-Sim uArch: Shader 14 finished CTA #1 (25039,0), 5 CTAs running
GPGPU-Sim uArch: Shader 3 finished CTA #4 (25044,0), 5 CTAs running
GPGPU-Sim uArch: Shader 3 finished CTA #3 (25093,0), 4 CTAs running
GPGPU-Sim uArch: Shader 14 finished CTA #3 (25121,0), 4 CTAs running
GPGPU-Sim uArch: Shader 14 finished CTA #4 (25125,0), 3 CTAs running
GPGPU-Sim uArch: Shader 1 finished CTA #3 (25139,0), 5 CTAs running
GPGPU-Sim PTX: 7300000 instructions simulated : ctaid=(0,21,0) tid=(12,12,0)
GPGPU-Sim uArch: Shader 3 finished CTA #5 (25149,0), 3 CTAs running
GPGPU-Sim uArch: Shader 0 finished CTA #5 (25161,0), 5 CTAs running
GPGPU-Sim uArch: Shader 14 finished CTA #5 (25169,0), 2 CTAs running
GPGPU-Sim uArch: Shader 0 finished CTA #3 (25175,0), 4 CTAs running
GPGPU-Sim uArch: Shader 1 finished CTA #5 (25197,0), 4 CTAs running
GPGPU-Sim uArch: Shader 1 finished CTA #4 (25209,0), 3 CTAs running
GPGPU-Sim PTX: 7400000 instructions simulated : ctaid=(3,25,0) tid=(3,9,0)
GPGPU-Sim PTX: 7500000 instructions simulated : ctaid=(1,26,0) tid=(7,5,0)
GPGPU-Sim uArch: cycles simulated: 25500  inst.: 7544202 (ipc=295.9) sim_rate=58939 (inst/sec) elapsed = 0:0:02:08 / Tue May 12 14:56:19 2015
GPGPU-Sim PTX: 7600000 instructions simulated : ctaid=(1,26,0) tid=(11,1,0)
GPGPU-Sim PTX: 7700000 instructions simulated : ctaid=(5,18,0) tid=(2,11,0)
GPGPU-Sim PTX: 7800000 instructions simulated : ctaid=(4,27,0) tid=(6,7,0)
GPGPU-Sim PTX: 7900000 instructions simulated : ctaid=(4,22,0) tid=(10,3,0)
GPGPU-Sim PTX: 8000000 instructions simulated : ctaid=(5,21,0) tid=(1,0,0)
GPGPU-Sim uArch: cycles simulated: 26000  inst.: 7992897 (ipc=307.4) sim_rate=59648 (inst/sec) elapsed = 0:0:02:14 / Tue May 12 14:56:25 2015
GPGPU-Sim PTX: 8100000 instructions simulated : ctaid=(0,20,0) tid=(5,9,0)
GPGPU-Sim PTX: 8200000 instructions simulated : ctaid=(1,17,0) tid=(9,5,0)
GPGPU-Sim PTX: 8300000 instructions simulated : ctaid=(0,27,0) tid=(0,2,0)
GPGPU-Sim PTX: 8400000 instructions simulated : ctaid=(0,19,0) tid=(4,11,0)
GPGPU-Sim uArch: cycles simulated: 26500  inst.: 8445648 (ipc=318.7) sim_rate=60326 (inst/sec) elapsed = 0:0:02:20 / Tue May 12 14:56:31 2015
GPGPU-Sim PTX: 8500000 instructions simulated : ctaid=(0,18,0) tid=(8,7,0)
GPGPU-Sim PTX: 8600000 instructions simulated : ctaid=(1,23,0) tid=(12,3,0)
GPGPU-Sim PTX: 8700000 instructions simulated : ctaid=(1,23,0) tid=(3,0,0)
GPGPU-Sim PTX: 8800000 instructions simulated : ctaid=(4,16,0) tid=(7,9,0)
GPGPU-Sim PTX: 8900000 instructions simulated : ctaid=(5,27,0) tid=(11,5,0)
GPGPU-Sim uArch: cycles simulated: 27000  inst.: 8939635 (ipc=331.1) sim_rate=61230 (inst/sec) elapsed = 0:0:02:26 / Tue May 12 14:56:37 2015
GPGPU-Sim PTX: 9000000 instructions simulated : ctaid=(5,22,0) tid=(2,2,0)
GPGPU-Sim PTX: 9100000 instructions simulated : ctaid=(2,17,0) tid=(6,11,0)
GPGPU-Sim PTX: 9200000 instructions simulated : ctaid=(0,18,0) tid=(10,7,0)
GPGPU-Sim PTX: 9300000 instructions simulated : ctaid=(3,17,0) tid=(1,4,0)
GPGPU-Sim PTX: 9400000 instructions simulated : ctaid=(1,22,0) tid=(5,0,0)
GPGPU-Sim uArch: cycles simulated: 27500  inst.: 9435650 (ipc=343.1) sim_rate=62076 (inst/sec) elapsed = 0:0:02:32 / Tue May 12 14:56:43 2015
GPGPU-Sim PTX: 9500000 instructions simulated : ctaid=(0,26,0) tid=(9,9,0)
GPGPU-Sim PTX: 9600000 instructions simulated : ctaid=(5,16,0) tid=(0,6,0)
GPGPU-Sim PTX: 9700000 instructions simulated : ctaid=(1,19,0) tid=(4,2,0)
GPGPU-Sim PTX: 9800000 instructions simulated : ctaid=(5,22,0) tid=(8,11,0)
GPGPU-Sim PTX: 9900000 instructions simulated : ctaid=(0,25,0) tid=(12,7,0)
GPGPU-Sim uArch: cycles simulated: 28000  inst.: 9912332 (ipc=354.0) sim_rate=62736 (inst/sec) elapsed = 0:0:02:38 / Tue May 12 14:56:49 2015
GPGPU-Sim PTX: 10000000 instructions simulated : ctaid=(3,24,0) tid=(3,1,0)
GPGPU-Sim PTX: 10100000 instructions simulated : ctaid=(3,20,0) tid=(4,0,0)
GPGPU-Sim PTX: 10200000 instructions simulated : ctaid=(3,20,0) tid=(9,10,0)
GPGPU-Sim PTX: 10300000 instructions simulated : ctaid=(3,22,0) tid=(4,0,0)
GPGPU-Sim PTX: 10400000 instructions simulated : ctaid=(5,19,0) tid=(10,9,0)
GPGPU-Sim uArch: cycles simulated: 28500  inst.: 10435763 (ipc=366.2) sim_rate=63632 (inst/sec) elapsed = 0:0:02:44 / Tue May 12 14:56:55 2015
GPGPU-Sim PTX: 10500000 instructions simulated : ctaid=(4,16,0) tid=(7,4,0)
GPGPU-Sim PTX: 10600000 instructions simulated : ctaid=(5,21,0) tid=(8,8,0)
GPGPU-Sim uArch: Shader 7 finished CTA #1 (28659,0), 5 CTAs running
GPGPU-Sim PTX: 10700000 instructions simulated : ctaid=(0,18,0) tid=(11,4,0)
GPGPU-Sim uArch: Shader 4 finished CTA #0 (28742,0), 5 CTAs running
GPGPU-Sim uArch: Shader 7 finished CTA #2 (28760,0), 4 CTAs running
GPGPU-Sim uArch: Shader 4 finished CTA #2 (28781,0), 4 CTAs running
GPGPU-Sim PTX: 10800000 instructions simulated : ctaid=(5,25,0) tid=(1,6,0)
GPGPU-Sim uArch: Shader 7 finished CTA #4 (28844,0), 3 CTAs running
GPGPU-Sim uArch: Shader 4 finished CTA #1 (28846,0), 3 CTAs running
GPGPU-Sim uArch: Shader 7 finished CTA #3 (28870,0), 2 CTAs running
GPGPU-Sim uArch: Shader 7 finished CTA #5 (28880,0), 1 CTAs running
GPGPU-Sim uArch: Shader 4 finished CTA #3 (28890,0), 2 CTAs running
GPGPU-Sim uArch: Shader 4 finished CTA #4 (28916,0), 1 CTAs running
GPGPU-Sim uArch: Shader 4 finished CTA #5 (28924,0), 0 CTAs running
GPGPU-Sim uArch: Shader 4 empty (release kernel 1 '_Z17executeFirstLayerPfS_S_').
GPGPU-Sim PTX: 10900000 instructions simulated : ctaid=(2,22,0) tid=(8,1,0)
GPGPU-Sim uArch: cycles simulated: 29000  inst.: 10902831 (ipc=376.0) sim_rate=64134 (inst/sec) elapsed = 0:0:02:50 / Tue May 12 14:57:01 2015
GPGPU-Sim PTX: 11000000 instructions simulated : ctaid=(0,24,0) tid=(6,4,0)
GPGPU-Sim uArch: Shader 6 finished CTA #0 (29144,0), 5 CTAs running
GPGPU-Sim PTX: 11100000 instructions simulated : ctaid=(5,25,0) tid=(0,7,0)
GPGPU-Sim uArch: Shader 6 finished CTA #3 (29173,0), 4 CTAs running
GPGPU-Sim uArch: Shader 9 finished CTA #4 (29228,0), 5 CTAs running
GPGPU-Sim uArch: Shader 8 finished CTA #2 (29234,0), 5 CTAs running
GPGPU-Sim uArch: Shader 5 finished CTA #0 (29240,0), 5 CTAs running
GPGPU-Sim uArch: Shader 8 finished CTA #0 (29255,0), 4 CTAs running
GPGPU-Sim PTX: 11200000 instructions simulated : ctaid=(2,27,0) tid=(11,6,0)
GPGPU-Sim uArch: Shader 9 finished CTA #3 (29302,0), 4 CTAs running
GPGPU-Sim uArch: Shader 6 finished CTA #1 (29375,0), 3 CTAs running
GPGPU-Sim uArch: Shader 7 finished CTA #0 (29377,0), 0 CTAs running
GPGPU-Sim uArch: Shader 7 empty (release kernel 1 '_Z17executeFirstLayerPfS_S_').
GPGPU-Sim uArch: Shader 9 finished CTA #0 (29406,0), 3 CTAs running
GPGPU-Sim PTX: 11300000 instructions simulated : ctaid=(3,22,0) tid=(0,8,0)
GPGPU-Sim uArch: Shader 6 finished CTA #2 (29474,0), 2 CTAs running
GPGPU-Sim uArch: cycles simulated: 29500  inst.: 11309930 (ipc=383.4) sim_rate=64628 (inst/sec) elapsed = 0:0:02:55 / Tue May 12 14:57:06 2015
GPGPU-Sim uArch: Shader 5 finished CTA #1 (29534,0), 4 CTAs running
GPGPU-Sim uArch: Shader 9 finished CTA #2 (29535,0), 2 CTAs running
GPGPU-Sim uArch: Shader 8 finished CTA #3 (29540,0), 3 CTAs running
GPGPU-Sim uArch: Shader 5 finished CTA #3 (29583,0), 3 CTAs running
GPGPU-Sim PTX: 11400000 instructions simulated : ctaid=(0,23,0) tid=(7,10,0)
GPGPU-Sim uArch: Shader 5 finished CTA #4 (29598,0), 2 CTAs running
GPGPU-Sim uArch: Shader 8 finished CTA #1 (29602,0), 2 CTAs running
GPGPU-Sim uArch: Shader 5 finished CTA #2 (29639,0), 1 CTAs running
GPGPU-Sim uArch: Shader 8 finished CTA #4 (29655,0), 1 CTAs running
GPGPU-Sim uArch: Shader 8 finished CTA #5 (29666,0), 0 CTAs running
GPGPU-Sim uArch: Shader 8 empty (release kernel 1 '_Z17executeFirstLayerPfS_S_').
GPGPU-Sim uArch: Shader 13 finished CTA #3 (29706,0), 5 CTAs running
GPGPU-Sim uArch: Shader 6 finished CTA #5 (29714,0), 1 CTAs running
GPGPU-Sim uArch: Shader 14 finished CTA #0 (29750,0), 1 CTAs running
GPGPU-Sim PTX: 11500000 instructions simulated : ctaid=(3,23,0) tid=(6,4,0)
GPGPU-Sim uArch: Shader 6 finished CTA #4 (29788,0), 0 CTAs running
GPGPU-Sim uArch: Shader 6 empty (release kernel 1 '_Z17executeFirstLayerPfS_S_').
GPGPU-Sim uArch: Shader 3 finished CTA #2 (29808,0), 2 CTAs running
GPGPU-Sim uArch: Shader 3 finished CTA #1 (29853,0), 1 CTAs running
GPGPU-Sim uArch: Shader 1 finished CTA #2 (29900,0), 2 CTAs running
GPGPU-Sim uArch: Shader 12 finished CTA #2 (29900,0), 5 CTAs running
GPGPU-Sim uArch: Shader 9 finished CTA #1 (29935,0), 1 CTAs running
GPGPU-Sim uArch: Shader 9 finished CTA #5 (29969,0), 0 CTAs running
GPGPU-Sim uArch: Shader 9 empty (release kernel 1 '_Z17executeFirstLayerPfS_S_').
GPGPU-Sim uArch: cycles simulated: 30000  inst.: 11540026 (ipc=384.7) sim_rate=64469 (inst/sec) elapsed = 0:0:02:59 / Tue May 12 14:57:10 2015
GPGPU-Sim uArch: Shader 14 finished CTA #2 (30009,0), 0 CTAs running
GPGPU-Sim uArch: Shader 14 empty (release kernel 1 '_Z17executeFirstLayerPfS_S_').
GPGPU-Sim uArch: Shader 0 finished CTA #1 (30027,0), 3 CTAs running
GPGPU-Sim uArch: Shader 1 finished CTA #1 (30047,0), 1 CTAs running
GPGPU-Sim uArch: Shader 12 finished CTA #1 (30060,0), 4 CTAs running
GPGPU-Sim PTX: 11600000 instructions simulated : ctaid=(5,22,0) tid=(5,2,0)
GPGPU-Sim uArch: Shader 3 finished CTA #0 (30106,0), 0 CTAs running
GPGPU-Sim uArch: Shader 3 empty (release kernel 1 '_Z17executeFirstLayerPfS_S_').
GPGPU-Sim uArch: Shader 1 finished CTA #0 (30107,0), 0 CTAs running
GPGPU-Sim uArch: Shader 1 empty (release kernel 1 '_Z17executeFirstLayerPfS_S_').
GPGPU-Sim uArch: Shader 5 finished CTA #5 (30111,0), 0 CTAs running
GPGPU-Sim uArch: Shader 5 empty (release kernel 1 '_Z17executeFirstLayerPfS_S_').
GPGPU-Sim uArch: Shader 13 finished CTA #0 (30132,0), 4 CTAs running
GPGPU-Sim uArch: Shader 13 finished CTA #2 (30158,0), 3 CTAs running
GPGPU-Sim uArch: Shader 12 finished CTA #5 (30166,0), 3 CTAs running
GPGPU-Sim uArch: Shader 12 finished CTA #0 (30168,0), 2 CTAs running
GPGPU-Sim uArch: Shader 13 finished CTA #4 (30198,0), 2 CTAs running
GPGPU-Sim uArch: Shader 0 finished CTA #0 (30215,0), 2 CTAs running
GPGPU-Sim uArch: Shader 12 finished CTA #3 (30229,0), 1 CTAs running
GPGPU-Sim uArch: Shader 13 finished CTA #5 (30241,0), 1 CTAs running
GPGPU-Sim uArch: Shader 0 finished CTA #2 (30298,0), 1 CTAs running
GPGPU-Sim uArch: Shader 12 finished CTA #4 (30312,0), 0 CTAs running
GPGPU-Sim uArch: Shader 12 empty (release kernel 1 '_Z17executeFirstLayerPfS_S_').
GPGPU-Sim uArch: Shader 2 finished CTA #0 (30329,0), 5 CTAs running
GPGPU-Sim uArch: Shader 0 finished CTA #4 (30369,0), 0 CTAs running
GPGPU-Sim uArch: Shader 0 empty (release kernel 1 '_Z17executeFirstLayerPfS_S_').
GPGPU-Sim uArch: Shader 13 finished CTA #1 (30396,0), 0 CTAs running
GPGPU-Sim uArch: Shader 13 empty (release kernel 1 '_Z17executeFirstLayerPfS_S_').
GPGPU-Sim uArch: Shader 2 finished CTA #2 (30400,0), 4 CTAs running
GPGPU-Sim uArch: Shader 2 finished CTA #1 (30449,0), 3 CTAs running
GPGPU-Sim uArch: Shader 11 finished CTA #1 (30453,0), 5 CTAs running
GPGPU-Sim uArch: cycles simulated: 30500  inst.: 11628064 (ipc=381.2) sim_rate=64600 (inst/sec) elapsed = 0:0:03:00 / Tue May 12 14:57:11 2015
GPGPU-Sim uArch: Shader 11 finished CTA #0 (30503,0), 4 CTAs running
GPGPU-Sim uArch: Shader 2 finished CTA #4 (30533,0), 2 CTAs running
GPGPU-Sim uArch: Shader 2 finished CTA #3 (30603,0), 1 CTAs running
GPGPU-Sim uArch: Shader 11 finished CTA #2 (30622,0), 3 CTAs running
GPGPU-Sim uArch: Shader 11 finished CTA #3 (30624,0), 2 CTAs running
GPGPU-Sim uArch: Shader 11 finished CTA #5 (30669,0), 1 CTAs running
GPGPU-Sim uArch: Shader 10 finished CTA #3 (30795,0), 5 CTAs running
GPGPU-Sim uArch: Shader 2 finished CTA #5 (30820,0), 0 CTAs running
GPGPU-Sim uArch: Shader 2 empty (release kernel 1 '_Z17executeFirstLayerPfS_S_').
GPGPU-Sim PTX: 11700000 instructions simulated : ctaid=(1,21,0) tid=(5,10,0)
GPGPU-Sim uArch: Shader 11 finished CTA #4 (30899,0), 0 CTAs running
GPGPU-Sim uArch: Shader 11 empty (release kernel 1 '_Z17executeFirstLayerPfS_S_').
GPGPU-Sim uArch: Shader 10 finished CTA #0 (31196,0), 4 CTAs running
GPGPU-Sim uArch: cycles simulated: 31500  inst.: 11694074 (ipc=371.2) sim_rate=64608 (inst/sec) elapsed = 0:0:03:01 / Tue May 12 14:57:12 2015
GPGPU-Sim uArch: Shader 10 finished CTA #1 (31578,0), 3 CTAs running
GPGPU-Sim uArch: Shader 10 finished CTA #4 (31615,0), 2 CTAs running
GPGPU-Sim uArch: Shader 10 finished CTA #2 (31661,0), 1 CTAs running
GPGPU-Sim uArch: Shader 10 finished CTA #5 (31786,0), 0 CTAs running
GPGPU-Sim uArch: Shader 10 empty (release kernel 1 '_Z17executeFirstLayerPfS_S_').
GPGPU-Sim uArch: GPU detected kernel '_Z17executeFirstLayerPfS_S_' finished on shader 10.
kernel_name = _Z17executeFirstLayerPfS_S_ 
kernel_launch_uid = 1 
gpu_sim_cycle = 31787
gpu_sim_insn = 11694074
gpu_ipc =     367.8886
gpu_tot_sim_cycle = 31787
gpu_tot_sim_insn = 11694074
gpu_tot_ipc =     367.8886
gpu_tot_issued_cta = 0
gpu_stall_dramfull = 84284
gpu_stall_icnt2sh    = 194872
gpu_total_sim_rate=64608

========= Core cache stats =========
L1I_cache:
	L1I_total_cache_accesses = 41390
	L1I_total_cache_misses = 398
	L1I_total_cache_miss_rate = 0.0096
	L1I_total_cache_pending_hits = 0
	L1I_total_cache_reservation_fails = 0
L1D_cache:
	L1D_cache_core[0]: Access = 5981, Miss = 2003, Miss_rate = 0.335, Pending_hits = 69, Reservation_fails = 14814
	L1D_cache_core[1]: Access = 5396, Miss = 2004, Miss_rate = 0.371, Pending_hits = 33, Reservation_fails = 14779
	L1D_cache_core[2]: Access = 7266, Miss = 1927, Miss_rate = 0.265, Pending_hits = 116, Reservation_fails = 13382
	L1D_cache_core[3]: Access = 5386, Miss = 1982, Miss_rate = 0.368, Pending_hits = 39, Reservation_fails = 14770
	L1D_cache_core[4]: Access = 7180, Miss = 1722, Miss_rate = 0.240, Pending_hits = 119, Reservation_fails = 10725
	L1D_cache_core[5]: Access = 7205, Miss = 1841, Miss_rate = 0.256, Pending_hits = 85, Reservation_fails = 13004
	L1D_cache_core[6]: Access = 7225, Miss = 1872, Miss_rate = 0.259, Pending_hits = 98, Reservation_fails = 12854
	L1D_cache_core[7]: Access = 7184, Miss = 1793, Miss_rate = 0.250, Pending_hits = 136, Reservation_fails = 12103
	L1D_cache_core[8]: Access = 7245, Miss = 1757, Miss_rate = 0.243, Pending_hits = 168, Reservation_fails = 11856
	L1D_cache_core[9]: Access = 7232, Miss = 1825, Miss_rate = 0.252, Pending_hits = 131, Reservation_fails = 12793
	L1D_cache_core[10]: Access = 7236, Miss = 2462, Miss_rate = 0.340, Pending_hits = 158, Reservation_fails = 13887
	L1D_cache_core[11]: Access = 7249, Miss = 2012, Miss_rate = 0.278, Pending_hits = 138, Reservation_fails = 15006
	L1D_cache_core[12]: Access = 7156, Miss = 1942, Miss_rate = 0.271, Pending_hits = 100, Reservation_fails = 13388
	L1D_cache_core[13]: Access = 7199, Miss = 1967, Miss_rate = 0.273, Pending_hits = 106, Reservation_fails = 13443
	L1D_cache_core[14]: Access = 4792, Miss = 1997, Miss_rate = 0.417, Pending_hits = 33, Reservation_fails = 14859
	L1D_total_cache_accesses = 100932
	L1D_total_cache_misses = 29106
	L1D_total_cache_miss_rate = 0.2884
	L1D_total_cache_pending_hits = 1529
	L1D_total_cache_reservation_fails = 201663
	L1D_cache_data_port_util = 0.155
	L1D_cache_fill_port_util = 0.062
L1C_cache:
	L1C_total_cache_accesses = 28224
	L1C_total_cache_misses = 1206
	L1C_total_cache_miss_rate = 0.0427
	L1C_total_cache_pending_hits = 0
	L1C_total_cache_reservation_fails = 6345
L1T_cache:
	L1T_total_cache_accesses = 0
	L1T_total_cache_misses = 0
	L1T_total_cache_pending_hits = 0
	L1T_total_cache_reservation_fails = 0

Total_core_cache_stats:
	Total_core_cache_stats_breakdown[GLOBAL_ACC_R][HIT] = 70297
	Total_core_cache_stats_breakdown[GLOBAL_ACC_R][HIT_RESERVED] = 1529
	Total_core_cache_stats_breakdown[GLOBAL_ACC_R][MISS] = 28056
	Total_core_cache_stats_breakdown[GLOBAL_ACC_R][RESERVATION_FAIL] = 199500
	Total_core_cache_stats_breakdown[CONST_ACC_R][HIT] = 27018
	Total_core_cache_stats_breakdown[CONST_ACC_R][MISS] = 1206
	Total_core_cache_stats_breakdown[CONST_ACC_R][RESERVATION_FAIL] = 6345
	Total_core_cache_stats_breakdown[GLOBAL_ACC_W][MISS] = 1050
	Total_core_cache_stats_breakdown[GLOBAL_ACC_W][RESERVATION_FAIL] = 2163
	Total_core_cache_stats_breakdown[INST_ACC_R][HIT] = 40992
	Total_core_cache_stats_breakdown[INST_ACC_R][MISS] = 398
Shader 0 warp_id issue ditsribution:
warp_id:
0, 1, 2, 3, 4, 5, 
distro:
874, 874, 874, 437, 874, 437, 
gpgpu_n_tot_thrd_icount = 18794496
gpgpu_n_tot_w_icount = 73416
gpgpu_n_stall_shd_mem = 323724
gpgpu_n_mem_read_local = 0
gpgpu_n_mem_write_local = 0
gpgpu_n_mem_read_global = 28056
gpgpu_n_mem_write_global = 1050
gpgpu_n_mem_texture = 0
gpgpu_n_mem_const = 45
gpgpu_n_load_insn  = 1447992
gpgpu_n_store_insn = 28392
gpgpu_n_shmem_insn = 0
gpgpu_n_tex_insn = 0
gpgpu_n_const_mem_insn = 709800
gpgpu_n_param_mem_insn = 85176
gpgpu_n_shmem_bkconflict = 0
gpgpu_n_cache_bkconflict = 0
gpgpu_n_intrawarp_mshr_merge = 0
gpgpu_n_cmem_portconflict = 29865
gpgpu_stall_shd_mem[c_mem][bk_conf] = 29865
gpgpu_stall_shd_mem[c_mem][mshr_rc] = 0
gpgpu_stall_shd_mem[c_mem][icnt_rc] = 0
gpgpu_stall_shd_mem[c_mem][data_port_stall] = 0
gpgpu_stall_shd_mem[t_mem][mshr_rc] = 0
gpgpu_stall_shd_mem[t_mem][icnt_rc] = 0
gpgpu_stall_shd_mem[t_mem][data_port_stall] = 0
gpgpu_stall_shd_mem[s_mem][bk_conf] = 0
gpgpu_stall_shd_mem[gl_mem][bk_conf] = 0
gpgpu_stall_shd_mem[gl_mem][coal_stall] = 293859
gpgpu_stall_shd_mem[gl_mem][data_port_stall] = 0
gpgpu_stall_shd_mem[g_mem_ld][mshr_rc] = 0
gpgpu_stall_shd_mem[g_mem_ld][icnt_rc] = 0
gpgpu_stall_shd_mem[g_mem_ld][wb_icnt_rc] = 0
gpgpu_stall_shd_mem[g_mem_ld][wb_rsrv_fail] = 0
gpgpu_stall_shd_mem[g_mem_st][mshr_rc] = 0
gpgpu_stall_shd_mem[g_mem_st][icnt_rc] = 0
gpgpu_stall_shd_mem[g_mem_st][wb_icnt_rc] = 0
gpgpu_stall_shd_mem[g_mem_st][wb_rsrv_fail] = 0
gpgpu_stall_shd_mem[l_mem_ld][mshr_rc] = 0
gpgpu_stall_shd_mem[l_mem_ld][icnt_rc] = 0
gpgpu_stall_shd_mem[l_mem_ld][wb_icnt_rc] = 0
gpgpu_stall_shd_mem[l_mem_ld][wb_rsrv_fail] = 0
gpgpu_stall_shd_mem[l_mem_st][mshr_rc] = 0
gpgpu_stall_shd_mem[l_mem_st][icnt_rc] = 0
gpgpu_stall_shd_mem[l_mem_ld][wb_icnt_rc] = 0
gpgpu_stall_shd_mem[l_mem_ld][wb_rsrv_fail] = 0
gpu_reg_bank_conflict_stalls = 0
Warp Occupancy Distribution:
Stall:47290	W0_Idle:19283	W0_Scoreboard:312665	W1:0	W2:0	W3:0	W4:0	W5:29	W6:0	W7:0	W8:0	W9:0	W10:0	W11:29	W12:0	W13:58	W14:0	W15:14	W16:43	W17:29	W18:87	W19:29	W20:72	W21:57	W22:101	W23:58	W24:29	W25:115	W26:143	W27:130	W28:58	W29:86	W30:158	W31:87	W32:101	W33:72	W34:72	W35:43	W36:86	W37:116	W38:116	W39:0	W40:87	W41:72	W42:72	W43:159	W44:145	W45:116	W46:87	W47:87	W48:58	W49:87	W50:145	W51:87	W52:58	W53:87	W54:29	W55:145	W56:101	W57:29	W58:58	W59:58	W60:0	W61:58	W62:0	W63:87	W64:58	W65:203	W66:116	W67:0	W68:0	W69:29	W70:0	W71:0	W72:0	W73:29	W74:0	W75:0	W76:0	W77:0	W78:0	W79:29	W80:0	W81:0	W82:0	W83:43	W84:0	W85:0	W86:43	W87:0	W88:0	W89:0	W90:14	W91:0	W92:0	W93:0	W94:0	W95:0	W96:14	W97:0	W98:0	W99:0	W100:14	W101:0	W102:0	W103:56	W104:98	W105:28	W106:42	W107:0	W108:28	W109:0	W110:28	W111:28	W112:14	W113:71	W114:70	W115:14	W116:42	W117:28	W118:42	W119:70	W120:42	W121:28	W122:42	W123:42	W124:56	W125:70	W126:99	W127:57	W128:57	W129:42	W130:0	W131:56	W132:56	W133:86	W134:43	W135:57	W136:57	W137:71	W138:42	W139:143	W140:86	W141:28	W142:85	W143:158	W144:100	W145:14	W146:28	W147:71	W148:72	W149:57	W150:14	W151:42	W152:14	W153:43	W154:29	W155:0	W156:28	W157:0	W158:14	W159:0	W160:0	W161:0	W162:0	W163:0	W164:14	W165:0	W166:0	W167:0	W168:0	W169:66192	W170:0	W171:0	W172:0	W173:0	W174:0	W175:0	W176:0	W177:0	W178:0	W179:0	W180:0	W181:0	W182:0	W183:0	W184:0	W185:0	W186:0	W187:0	W188:0	W189:0	W190:0	W191:0	W192:0	W193:0	W194:0	W195:0	W196:0	W197:0	W198:0	W199:0	W200:0	W201:0	W202:0	W203:0	W204:0	W205:0	W206:0	W207:0	W208:0	W209:0	W210:0	W211:0	W212:0	W213:0	W214:0	W215:0	W216:0	W217:0	W218:0	W219:0	W220:0	W221:0	W222:0	W223:0	W224:0	W225:0	W226:0	W227:0	W228:0	W229:0	W230:0	W231:0	W232:0	W233:0	W234:0	W235:0	W236:0	W237:0	W238:0	W239:0	W240:0	W241:0	W242:0	W243:0	W244:0	W245:0	W246:0	W247:0	W248:0	W249:0	W250:0	W251:0	W252:0	W253:0	W254:0	W255:0	W256:0
traffic_breakdown_coretomem[CONST_ACC_R] = 360 {8:45,}
traffic_breakdown_coretomem[GLOBAL_ACC_R] = 224448 {8:28056,}
traffic_breakdown_coretomem[GLOBAL_ACC_W] = 129360 {40:84,72:84,136:882,}
traffic_breakdown_coretomem[INST_ACC_R] = 840 {8:105,}
traffic_breakdown_memtocore[CONST_ACC_R] = 3240 {72:45,}
traffic_breakdown_memtocore[GLOBAL_ACC_R] = 3815616 {136:28056,}
traffic_breakdown_memtocore[GLOBAL_ACC_W] = 8400 {8:1050,}
traffic_breakdown_memtocore[INST_ACC_R] = 14280 {136:105,}
maxmrqlatency = 163 
maxdqlatency = 0 
maxmflatency = 1014 
averagemflatency = 356 
max_icnt2mem_latency = 644 
max_icnt2sh_latency = 31786 
mrq_lat_table:988 	338 	144 	354 	422 	245 	85 	3 	0 	0 	0 	0 	0 	0 	0 	0 	0 	0 	0 	0 	0 	0 	0 	0 	0 	0 	0 	0 	0 	0 	0 	0 	
dq_lat_table:0 	0 	0 	0 	0 	0 	0 	0 	0 	0 	0 	0 	0 	0 	0 	0 	0 	0 	0 	0 	0 	0 	0 	0 	0 	0 	0 	0 	0 	0 	0 	0 	
mf_lat_table:0 	0 	0 	0 	0 	0 	0 	7008 	18366 	3777 	0 	0 	0 	0 	0 	0 	0 	0 	0 	0 	0 	0 	0 	0 	0 	0 	0 	0 	0 	0 	0 	0 	
icnt2mem_lat_table:0 	0 	0 	10104 	2774 	3422 	5091 	5752 	2083 	30 	0 	0 	0 	0 	0 	0 	0 	0 	0 	0 	0 	0 	0 	0 	
icnt2sh_lat_table:0 	0 	0 	1058 	16787 	9757 	498 	1 	0 	0 	0 	0 	0 	0 	1050 	0 	0 	0 	0 	0 	0 	0 	0 	0 	
mf_lat_pw_table:0 	0 	0 	0 	0 	0 	0 	12 	50 	0 	0 	0 	0 	0 	0 	0 	0 	0 	0 	0 	0 	0 	0 	0 	0 	0 	0 	0 	0 	0 	0 	0 	
maximum concurrent accesses to same row:
dram[0]:         1         0         0         0         0         0         0         0         0         0         0         0         0         0         0         0 
dram[1]:         1         0         0         0         0         0         0         0         0         0         0         0         0         0         0         0 
dram[2]:         0         0         0         0         0         0         0         0         0         0         0         0         0         0         0         0 
dram[3]:         0         0         0         0         0         0         0         0         0         0         0         0         0         0         0         0 
dram[4]:         0         0         0         0         0         0         0         0         0         0         0         0         0         0         0         0 
dram[5]:         0         0         0         0         0         0         0         0         0         0         0         0         0         0         0         0 
maximum service time to same row:
dram[0]:       322         0         0         0      1479      1454      1838      2063     22722       822     22494     22385     28747     29191         0         0 
dram[1]:      2051         0         0         0      1475      1453      2054      2026     22716     22572     22624     22372     29075     29177         0         0 
dram[2]:     20507         0         0         0      1471      1476      2001      2001     22410     22557     22613     22360     29131     29182         0         0 
dram[3]:     21975         0         0         0      1466      1472      2113      2046     22340     22552     22602     22710     29119     29169         0         0 
dram[4]:         0         0         0         0      1463      1487      2104      2057       812     22778     22432     22610     29113     29109         0         0 
dram[5]:         0         0         0         0      1459      1482      2060      1984       816     22856     22465     22659     29119     29100         0         0 
average row accesses per activate:
dram[0]:  1.000000      -nan      -nan      -nan 10.000000 10.000000 32.000000 32.000000 44.000000 44.000000 64.000000 65.000000 64.000000 62.000000      -nan      -nan 
dram[1]:  3.000000      -nan      -nan      -nan 10.000000 10.000000 32.000000 32.000000 44.000000 47.000000 65.000000 65.000000 63.000000 57.000000      -nan      -nan 
dram[2]:  2.000000      -nan      -nan      -nan 10.000000 12.000000 32.000000 32.000000 44.000000 46.000000 66.000000 65.000000 64.000000 59.000000      -nan      -nan 
dram[3]:  1.000000      -nan      -nan      -nan 10.000000 12.000000 32.000000 32.000000 44.000000 46.000000 66.000000 69.000000 63.000000 59.000000      -nan      -nan 
dram[4]:      -nan      -nan      -nan      -nan 10.000000 12.000000 32.000000 32.000000 44.000000 48.000000 65.000000 66.000000 61.000000 58.000000      -nan      -nan 
dram[5]:      -nan      -nan      -nan      -nan 10.000000 12.000000 32.000000 32.000000 44.000000 47.000000 65.000000 64.000000 65.000000 56.000000      -nan      -nan 
average row locality = 2579/66 = 39.075756
number of total memory accesses made:
dram[0]:         0         0         0         0         0         0         0         0         0         0         0         0         0         0         0         0 
dram[1]:         0         0         0         0         0         0         0         0         0         0         0         0         0         0         0         0 
dram[2]:         0         0         0         0         0         0         0         0         0         0         0         0         0         0         0         0 
dram[3]:         0         0         0         0         0         0         0         0         0         0         0         0         0         0         0         0 
dram[4]:         0         0         0         0         0         0         0         0         0         0         0         0         0         0         0         0 
dram[5]:         0         0         0         0         0         0         0         0         0         0         0         0         0         0         0         0 
total accesses: 0
min_bank_accesses = 0!
min_chip_accesses = 0!
number of total read accesses:
dram[0]:         3         0         0         0        10        10        32        32        32        31        32        32        30        30         0         0 
dram[1]:         3         0         0         0        10        10        32        32        32        32        32        32        30        28         0         0 
dram[2]:         2         0         0         0        10        12        32        32        32        32        32        32        30        28         0         0 
dram[3]:         1         0         0         0        10        12        32        32        32        32        32        32        30        28         0         0 
[...]
traffic_breakdown_coretomem[CONST_ACC_R] = 600 {8:75,}
traffic_breakdown_coretomem[GLOBAL_ACC_R] = 1446568 {8:180821,}
traffic_breakdown_coretomem[GLOBAL_ACC_W] = 473760 {40:3864,72:784,136:1932,}
traffic_breakdown_coretomem[INST_ACC_R] = 3000 {8:375,}
traffic_breakdown_memtocore[CONST_ACC_R] = 5400 {72:75,}
traffic_breakdown_memtocore[GLOBAL_ACC_R] = 24591656 {136:180821,}
traffic_breakdown_memtocore[GLOBAL_ACC_W] = 52640 {8:6580,}
traffic_breakdown_memtocore[INST_ACC_R] = 51000 {136:375,}
maxmrqlatency = 163 
maxdqlatency = 0 
maxmflatency = 1014 
averagemflatency = 180 
max_icnt2mem_latency = 644 
max_icnt2sh_latency = 3027539 
mrq_lat_table:7087 	720 	259 	601 	648 	285 	142 	3 	0 	0 	0 	0 	0 	0 	0 	0 	0 	0 	0 	0 	0 	0 	0 	0 	0 	0 	0 	0 	0 	0 	0 	0 	
dq_lat_table:0 	0 	0 	0 	0 	0 	0 	0 	0 	0 	0 	0 	0 	0 	0 	0 	0 	0 	0 	0 	0 	0 	0 	0 	0 	0 	0 	0 	0 	0 	0 	0 	
mf_lat_table:0 	0 	0 	0 	0 	0 	0 	160428 	23271 	3777 	0 	0 	0 	0 	0 	0 	0 	0 	0 	0 	0 	0 	0 	0 	0 	0 	0 	0 	0 	0 	0 	0 	
icnt2mem_lat_table:0 	0 	0 	168093 	3252 	3533 	5092 	5768 	2083 	30 	0 	0 	0 	0 	0 	0 	0 	0 	0 	0 	0 	0 	0 	0 	
icnt2sh_lat_table:0 	0 	0 	145837 	24296 	10264 	498 	1 	0 	0 	0 	0 	0 	0 	1050 	546 	1258 	706 	255 	525 	1050 	1190 	0 	0 	
mf_lat_pw_table:0 	0 	0 	0 	0 	0 	0 	5906 	149 	0 	0 	0 	0 	0 	0 	0 	0 	0 	0 	0 	0 	0 	0 	0 	0 	0 	0 	0 	0 	0 	0 	0 	
maximum concurrent accesses to same row:
dram[0]:        75        77        84        77        34        30        32        32        44        44        64        65        66        64        54        55 
dram[1]:        79        73        80        83        34        32        32        32        44        47        65        65        65        61        55        50 
dram[2]:        82        78        72        82        36        29        32        32        44        46        66        65        66        63        51        52 
dram[3]:        77        78        82        78        36        30        32        32        44        46        66        69        65        63        52        55 
dram[4]:        75        74        84        86        31        31        32        32        44        48        65        66        63        62        54        53 
dram[5]:        77        80        86        77        30        28        32        32        44        47        65        64        67        60        53        55 
maximum service time to same row:
dram[0]:     22997     19006     70056     71097    112893    115384     15168     16247   1531267   1707033     22494     22385     28747     29191       279       285 
dram[1]:     25797    143615     70188     71094    113238    115379     15133     16151   1359854     85894     22624     22372     29075     29177       284       279 
dram[2]:     20507     81134     70429     72397    113236    115453     15723     16651    793239   1045739     22613     22360     29131    435751      1620       353 
dram[3]:     21975     81456     70909     72287    113956    115604     15847     16767     82058    775715     22602     22710     29119     29169       282       279 
dram[4]:     25808     27241     70906     72329    114303    116016     15892     16897   1559025   1198389     22432     22610     29113     29109       282       282 
dram[5]:     19197     28718     71037     72544    114304    116134     16472     16937    874415     85122     22465     22659     29119     29100      1155       294 
average row accesses per activate:
dram[0]: 18.500000 37.000000 58.000000 54.500000  2.848485  3.172414  3.428571  5.052631 16.428572 17.571428 48.000000 48.500000 49.000000 48.000000 43.000000 43.500000 
dram[1]: 28.750000 18.500000 56.000000 57.500000  3.481482  2.818182  3.555556  4.571429 16.428572 40.000000 48.500000 48.500000 48.500000 46.500000 43.500000 41.000000 
dram[2]: 38.666668 23.200001 52.000000 57.000000  3.275862  3.206897  4.173913  3.840000 12.777778 23.400000 49.000000 48.500000 49.000000 32.000000 41.500000 42.000000 
dram[3]: 37.000000 23.000000 57.000000 55.000000  3.555556  3.241379  3.840000  4.173913 25.000000 13.666667 49.000000 50.500000 48.500000 47.500000 42.000000 43.500000 
dram[4]: 36.333332 36.000000 58.000000 59.000000  3.172414  2.848485  4.173913  4.173913 23.799999 23.600000 48.500000 49.000000 47.500000 47.000000 43.000000 42.500000 
dram[5]: 37.000000 38.000000 59.000000 54.500000  3.370370  2.935484  3.692308  4.173913 13.555555 23.400000 48.500000 48.000000 49.500000 46.000000 42.500000 43.500000 
average row locality = 9745/862 = 11.305104
number of total memory accesses made:
dram[0]:         0         0         0         0         0         0         0         0         0         0         0         0         0         0         0         0 
dram[1]:         0         0         0         0         0         0         0         0         0         0         0         0         0         0         0         0 
dram[2]:         0         0         0         0         0         0         0         0         0         0         0         0         0         0         0         0 
dram[3]:         0         0         0         0         0         0         0         0         0         0         0         0         0         0         0         0 
dram[4]:         0         0         0         0         0         0         0         0         0         0         0         0         0         0         0         0 
dram[5]:         0         0         0         0         0         0         0         0         0         0         0         0         0         0         0         0 
total accesses: 0
min_bank_accesses = 0!
min_chip_accesses = 0!
number of total read accesses:
dram[0]:        68        66        64        64        74        74        96        96        94        93        64        64        64        64        64        64 
dram[1]:        68        68        64        64        74        74        96        96        94        93        64        64        64        64        64        64 
dram[2]:        66        68        64        64        74        76        96        96        94        92        64        64        64        64        64        64 
dram[3]:        66        68        64        64        74        76        96        96        94        92        64        64        64        64        64        64 
dram[4]:        66        66        64        64        74        76        96        96        94        92        64        64        64        64        64        64 
dram[5]:        66        66        64        64        74        76        96        96        94        92        64        64        64        64        64        64 
total reads: 7040
bank skew: 96/64 = 1.50
chip skew: 1175/1172 = 1.00
number of total write accesses:
dram[0]:        43        45        52        45        20        18         0         0        21        30        32        33        34        32        22        23 
dram[1]:        47        43        48        51        20        19         0         0        21        27        33        33        33        29        23        18 
dram[2]:        50        48        40        50        21        17         0         0        21        25        34        33        34        32        19        20 
dram[3]:        45        47        50        46        22        18         0         0        31        31        34        37        33        31        20        23 
dram[4]:        43        42        52        54        18        18         0         0        25        26        33        34        31        30        22        21 
dram[5]:        45        48        54        45        17        15         0         0        28        25        33        32        35        28        21        23 
total reads: 2705
min_bank_accesses = 0!
chip skew: 468/444 = 1.05
average mf latency per bank:
dram[0]:       2167      2140      2052      2139      6230      5872     10110      9018      2860      2846      2161      2146      2142      2145      3070      3000
dram[1]:       2140      2096      2089      2044      4963      5940      7926      9155      2767      2777      2162      2092      2161      2353      2994      3195
dram[2]:       2024      2077      2327      2072      4612      4954      6582      6116      2745      2765      2138      2175      2179      2224      3067      3062
dram[3]:       2136      2080      2010      2106      5132      5424      8008      7291      2672      2650      2154      2054      2165      2243      3177      2925
dram[4]:       2158      2125      2088      2036      4593      8528      7088     12256      3064      2714      2163      2086      2247      2266      2957      3003
dram[5]:       2153      2080      1989      2166      5099      5699      9926      8791      3091      2674      2123      2175      2116      2329      3104      2922
maximum mf latency per bank:
dram[0]:        320       324       282       279       718       768       784       872       714       681       615       499       362       344       436       392
dram[1]:        521       462       315       468       588       709       627       747       668       511       550       485       363       452       381       458
dram[2]:        320       310       303       324       564       632       630       606       394       505       583       496       367       338       312       378
dram[3]:        340       300       277       277       660       690       581       750       410       456       563       556       401       336       374       408
dram[4]:        277       277       348       322       564      1014       620       888       491       719       468       745       351       324       284       348
dram[5]:        304       342       308       330       765       800       801       812       675       773       519       741       344       333       363       415

Number of Memory Banks Accessed per Memory Operation per Warp (from 0):
0	0	0	0	0	0	0	0	0	0	0	0	0	0	0	0	0	0	0	0	0	0	0	0	0	0	0	0	0	0	0	0	0	0	0	0	0	0	0	0	0	0	0	0	0	0	0	0	0	0	0	0	0	0	0	0	0	0	0	0	0	0	0	0	0	0	0	0	0	0	0	0	0	0	0	0	0	0	0	0	0	0	0	0	0	0	0	0	0	0	0	0	0	0	0	0	
Average # of Memory Banks Accessed per Memory Operation per Warp=-nan

position of mrq chosen
0	0	0	0	0	0	0	0	0	0	0	0	0	0	0	0	

average position of mrq chosen = -nan
Memory Partition 0: 
Cache L2_bank_000:
MSHR contents

Cache L2_bank_001:
MSHR contents

In Dram Latency Queue (total = 0): 
DRAM[0]: 16 bks, busW=4 BL=8 CL=12, tRRD=2 tCCD=6, tRCD=12 tRAS=28 tRP=12 tRC=40
n_cmd=3996350 n_nop=3993012 n_act=148 n_pre=132 n_req=1623 n_rd=2346 n_write=712 bw_util=0.00153
n_activity=25857 dram_eff=0.2365
bk0: 136a 3995503i bk1: 132a 3995534i bk2: 128a 3995532i bk3: 128a 3995617i bk4: 148a 3995063i bk5: 148a 3995123i bk6: 192a 3995206i bk7: 192a 3995374i bk8: 188a 3995367i bk9: 186a 3995224i bk10: 128a 3995123i bk11: 128a 3995098i bk12: 128a 3995309i bk13: 128a 3995354i bk14: 128a 3995700i bk15: 128a 3995674i 
dram_util_bins: 0 0 0 0 0 0 0 0 0 0
dram_eff_bins: 0 0 0 0 0 0 0 0 0 0
mrqq: max=16 avg=0.00263841
Memory Partition 1: 
Cache L2_bank_002:
MSHR contents

Cache L2_bank_003:
MSHR contents

In Dram Latency Queue (total = 0): 
DRAM[1]: 16 bks, busW=4 BL=8 CL=12, tRRD=2 tCCD=6, tRCD=12 tRAS=28 tRP=12 tRC=40
n_cmd=3996350 n_nop=3993023 n_act=145 n_pre=129 n_req=1620 n_rd=2350 n_write=703 bw_util=0.001528
n_activity=25498 dram_eff=0.2395
bk0: 136a 3995529i bk1: 136a 3995467i bk2: 128a 3995575i bk3: 128a 3995549i bk4: 148a 3995223i bk5: 148a 3995047i bk6: 192a 3995251i bk7: 192a 3995285i bk8: 188a 3995362i bk9: 186a 3995291i bk10: 128a 3995059i bk11: 128a 3995050i bk12: 128a 3995328i bk13: 128a 3995372i bk14: 128a 3995689i bk15: 128a 3995705i 
dram_util_bins: 0 0 0 0 0 0 0 0 0 0
dram_eff_bins: 0 0 0 0 0 0 0 0 0 0
mrqq: max=15 avg=0.00261464
Memory Partition 2: 
Cache L2_bank_004:
MSHR contents

Cache L2_bank_005:
MSHR contents

In Dram Latency Queue (total = 0): 
DRAM[2]: 16 bks, busW=4 BL=8 CL=12, tRRD=2 tCCD=6, tRCD=12 tRAS=28 tRP=12 tRC=40
n_cmd=3996350 n_nop=3993035 n_act=145 n_pre=129 n_req=1618 n_rd=2348 n_write=693 bw_util=0.001522
n_activity=25510 dram_eff=0.2384
bk0: 132a 3995448i bk1: 136a 3995463i bk2: 128a 3995624i bk3: 128a 3995507i bk4: 148a 3995180i bk5: 152a 3995149i bk6: 192a 3995332i bk7: 192a 3995175i bk8: 188a 3995306i bk9: 184a 3995306i bk10: 128a 3995092i bk11: 128a 3995059i bk12: 128a 3995246i bk13: 128a 3995295i bk14: 128a 3995778i bk15: 128a 3995712i 
dram_util_bins: 0 0 0 0 0 0 0 0 0 0
dram_eff_bins: 0 0 0 0 0 0 0 0 0 0
mrqq: max=11 avg=0.00236841
Memory Partition 3: 
Cache L2_bank_006:
MSHR contents

Cache L2_bank_007:
MSHR contents

In Dram Latency Queue (total = 0): 
DRAM[3]: 16 bks, busW=4 BL=8 CL=12, tRRD=2 tCCD=6, tRCD=12 tRAS=28 tRP=12 tRC=40
n_cmd=3996350 n_nop=3993007 n_act=142 n_pre=126 n_req=1642 n_rd=2348 n_write=727 bw_util=0.001539
n_activity=25531 dram_eff=0.2409
bk0: 132a 3995517i bk1: 136a 3995516i bk2: 128a 3995573i bk3: 128a 3995591i bk4: 148a 3995188i bk5: 152a 3995138i bk6: 192a 3995261i bk7: 192a 3995256i bk8: 188a 3995329i bk9: 184a 3995129i bk10: 128a 3995039i bk11: 128a 3995048i bk12: 128a 3995219i bk13: 128a 3995325i bk14: 128a 3995718i bk15: 128a 3995635i 
dram_util_bins: 0 0 0 0 0 0 0 0 0 0
dram_eff_bins: 0 0 0 0 0 0 0 0 0 0
mrqq: max=16 avg=0.003019
Memory Partition 4: 
Cache L2_bank_008:
MSHR contents

Cache L2_bank_009:
MSHR contents

In Dram Latency Queue (total = 0): 
DRAM[4]: 16 bks, busW=4 BL=8 CL=12, tRRD=2 tCCD=6, tRCD=12 tRAS=28 tRP=12 tRC=40
n_cmd=3996350 n_nop=3993045 n_act=140 n_pre=124 n_req=1621 n_rd=2344 n_write=697 bw_util=0.001522
n_activity=25417 dram_eff=0.2393
bk0: 132a 3995585i bk1: 132a 3995570i bk2: 128a 3995522i bk3: 128a 3995576i bk4: 148a 3995189i bk5: 152a 3994976i bk6: 192a 3995297i bk7: 192a 3995247i bk8: 188a 3995335i bk9: 184a 3995243i bk10: 128a 3995002i bk11: 128a 3995105i bk12: 128a 3995280i bk13: 128a 3995340i bk14: 128a 3995796i bk15: 128a 3995731i 
dram_util_bins: 0 0 0 0 0 0 0 0 0 0
dram_eff_bins: 0 0 0 0 0 0 0 0 0 0
mrqq: max=13 avg=0.0022493
Memory Partition 5: 
Cache L2_bank_010:
MSHR contents

Cache L2_bank_011:
MSHR contents

In Dram Latency Queue (total = 0): 
DRAM[5]: 16 bks, busW=4 BL=8 CL=12, tRRD=2 tCCD=6, tRCD=12 tRAS=28 tRP=12 tRC=40
n_cmd=3996350 n_nop=3993029 n_act=143 n_pre=127 n_req=1621 n_rd=2344 n_write=707 bw_util=0.001527
n_activity=25367 dram_eff=0.2405
bk0: 132a 3995499i bk1: 132a 3995495i bk2: 128a 3995578i bk3: 128a 3995595i bk4: 148a 3995243i bk5: 152a 3995119i bk6: 192a 3995265i bk7: 192a 3995270i bk8: 188a 3995233i bk9: 184a 3995264i bk10: 128a 3995040i bk11: 128a 3995102i bk12: 128a 3995223i bk13: 128a 3995363i bk14: 128a 3995759i bk15: 128a 3995651i 
dram_util_bins: 0 0 0 0 0 0 0 0 0 0
dram_eff_bins: 0 0 0 0 0 0 0 0 0 0
mrqq: max=16 avg=0.00253957

========= L2 cache stats =========
L2_cache_bank[0]: Access = 15933, Miss = 588, Miss_rate = 0.037, Pending_hits = 162, Reservation_fails = 979
L2_cache_bank[1]: Access = 15722, Miss = 585, Miss_rate = 0.037, Pending_hits = 167, Reservation_fails = 1198
L2_cache_bank[2]: Access = 15645, Miss = 588, Miss_rate = 0.038, Pending_hits = 165, Reservation_fails = 920
L2_cache_bank[3]: Access = 15697, Miss = 587, Miss_rate = 0.037, Pending_hits = 153, Reservation_fails = 1203
L2_cache_bank[4]: Access = 15365, Miss = 586, Miss_rate = 0.038, Pending_hits = 156, Reservation_fails = 712
L2_cache_bank[5]: Access = 15360, Miss = 588, Miss_rate = 0.038, Pending_hits = 137, Reservation_fails = 798
L2_cache_bank[6]: Access = 15673, Miss = 586, Miss_rate = 0.037, Pending_hits = 170, Reservation_fails = 1205
L2_cache_bank[7]: Access = 15477, Miss = 588, Miss_rate = 0.038, Pending_hits = 164, Reservation_fails = 1004
L2_cache_bank[8]: Access = 15572, Miss = 586, Miss_rate = 0.038, Pending_hits = 162, Reservation_fails = 824
L2_cache_bank[9]: Access = 15980, Miss = 586, Miss_rate = 0.037, Pending_hits = 153, Reservation_fails = 967
L2_cache_bank[10]: Access = 15759, Miss = 586, Miss_rate = 0.037, Pending_hits = 163, Reservation_fails = 896
L2_cache_bank[11]: Access = 15668, Miss = 586, Miss_rate = 0.037, Pending_hits = 155, Reservation_fails = 882
L2_total_cache_accesses = 187851
L2_total_cache_misses = 7040
L2_total_cache_miss_rate = 0.0375
L2_total_cache_pending_hits = 1907
L2_total_cache_reservation_fails = 11588
L2_total_cache_breakdown:
	L2_cache_stats_breakdown[GLOBAL_ACC_R][HIT] = 174640
	L2_cache_stats_breakdown[GLOBAL_ACC_R][HIT_RESERVED] = 1248
	L2_cache_stats_breakdown[GLOBAL_ACC_R][MISS] = 4933
	L2_cache_stats_breakdown[GLOBAL_ACC_R][RESERVATION_FAIL] = 10096
	L2_cache_stats_breakdown[CONST_ACC_R][HIT] = 63
	L2_cache_stats_breakdown[CONST_ACC_R][HIT_RESERVED] = 9
	L2_cache_stats_breakdown[CONST_ACC_R][MISS] = 3
	L2_cache_stats_breakdown[CONST_ACC_R][RESERVATION_FAIL] = 312
	L2_cache_stats_breakdown[GLOBAL_ACC_W][HIT] = 3901
	L2_cache_stats_breakdown[GLOBAL_ACC_W][HIT_RESERVED] = 600
	L2_cache_stats_breakdown[GLOBAL_ACC_W][MISS] = 2079
	L2_cache_stats_breakdown[GLOBAL_ACC_W][RESERVATION_FAIL] = 131
	L2_cache_stats_breakdown[INST_ACC_R][HIT] = 300
	L2_cache_stats_breakdown[INST_ACC_R][HIT_RESERVED] = 50
	L2_cache_stats_breakdown[INST_ACC_R][MISS] = 25
	L2_cache_stats_breakdown[INST_ACC_R][RESERVATION_FAIL] = 1049
L2_cache_data_port_util = 0.019
L2_cache_fill_port_util = 0.001

icnt_total_pkts_mem_to_simt=912785
icnt_total_pkts_simt_to_mem=201011
LD_mem_lat_dist  0 0 0 0 0 0 0 0 0 0 0 0 0 0 0 0 0 0 0 0 0 0 0 0 0 0 0
ST_mem_lat_dist  0 0 0 0 0 0 0 0 0 0 0 0 0 0 0 0 0 0 0 0 0 0 0 0 0 0 0
----------------------------Interconnect-DETAILS--------------------------------
Class 0:
Packet latency average = 9.34455
	minimum = 6
	maximum = 182
Network latency average = 9.01132
	minimum = 6
	maximum = 182
Slowest packet = 373505
Flit latency average = 7.18373
	minimum = 6
	maximum = 181
Slowest flit = 1108000
Fragmentation average = 0
	minimum = 0
	maximum = 0
Injected packet rate average = 0.00417657
	minimum = 0.00345066 (at node 8)
	maximum = 0.00593513 (at node 21)
Accepted packet rate average = 0.00417657
	minimum = 0.00345066 (at node 8)
	maximum = 0.00593513 (at node 21)
Injected flit rate average = 0.0114562
	minimum = 0.00407177 (at node 8)
	maximum = 0.0234645 (at node 24)
Accepted flit rate average= 0.0114562
	minimum = 0.00351967 (at node 20)
	maximum = 0.0172188 (at node 1)
Injected packet length average = 2.74296
Accepted packet length average = 2.74296
Total in-flight flits = 0 (0 measured)
====== Overall Traffic Statistics ======
====== Traffic class 0 ======
Packet latency average = 17.0259 (4 samples)
	minimum = 6 (4 samples)
	maximum = 212.25 (4 samples)
Network latency average = 14.3433 (4 samples)
	minimum = 6 (4 samples)
	maximum = 191 (4 samples)
Flit latency average = 10.3583 (4 samples)
	minimum = 6 (4 samples)
	maximum = 189.75 (4 samples)
Fragmentation average = 9.39978e-05 (4 samples)
	minimum = 0 (4 samples)
	maximum = 5.5 (4 samples)
Injected packet rate average = 0.0218704 (4 samples)
	minimum = 0.0175647 (4 samples)
	maximum = 0.0279318 (4 samples)
Accepted packet rate average = 0.0218704 (4 samples)
	minimum = 0.0175647 (4 samples)
	maximum = 0.0279318 (4 samples)
Injected flit rate average = 0.0649184 (4 samples)
	minimum = 0.0206245 (4 samples)
	maximum = 0.133741 (4 samples)
Accepted flit rate average = 0.0649184 (4 samples)
	minimum = 0.0250454 (4 samples)
	maximum = 0.116601 (4 samples)
Injected packet size average = 2.96833 (4 samples)
Accepted packet size average = 2.96833 (4 samples)
Hops average = 1 (4 samples)
----------------------------END-of-Interconnect-DETAILS-------------------------


gpgpu_simulation_time = 0 days, 2 hrs, 15 min, 21 sec (8121 sec)
gpgpu_simulation_rate = 9647 (inst/sec)
gpgpu_simulation_rate = 372 (cycle/sec)
7 2 1 0 4 1 4 9 6 9 0 6 9 0 1 5 9 7 3 4 9 6 6 5 4 0 7 4
