

        *** GPGPU-Sim Simulator Version 3.2.2  [build 0] ***


GPGPU-Sim PTX: simulation mode 0 (can change with PTX_SIM_MODE_FUNC environment variable:
               1=functional simulation only, 0=detailed performance simulator)
GPGPU-Sim: Configuration options:

-network_mode                           1 # Interconnection network mode
-inter_config_file   config_fermi_islip.icnt # Interconnection network config file
-gpgpu_ptx_use_cuobjdump                    1 # Use cuobjdump to extract ptx and sass from binaries
-gpgpu_experimental_lib_support                    0 # Try to extract code from cuda libraries [Broken because of unknown cudaGetExportTable]
-gpgpu_ptx_convert_to_ptxplus                    0 # Convert SASS (native ISA) to ptxplus and run ptxplus
-gpgpu_ptx_force_max_capability                   20 # Force maximum compute capability
-gpgpu_ptx_inst_debug_to_file                    0 # Dump executed instructions' debug information to file
-gpgpu_ptx_inst_debug_file       inst_debug.txt # Executed instructions' debug output file
-gpgpu_ptx_inst_debug_thread_uid                    1 # Thread UID for executed instructions' debug output
-gpgpu_simd_model                       1 # 1 = post-dominator
-gpgpu_shader_core_pipeline              1536:32 # shader core pipeline config, i.e., {<nthread>:<warpsize>}
-gpgpu_tex_cache:l1  4:128:24,L:R:m:N:L,F:128:4,128:2 # per-shader L1 texture cache  (READ-ONLY) config  {<nsets>:<bsize>:<assoc>,<rep>:<wr>:<alloc>:<wr_alloc>,<mshr>:<N>:<merge>,<mq>:<rf>}
-gpgpu_const_cache:l1 64:64:2,L:R:f:N:L,A:2:32,4 # per-shader L1 constant memory cache  (READ-ONLY) config  {<nsets>:<bsize>:<assoc>,<rep>:<wr>:<alloc>:<wr_alloc>,<mshr>:<N>:<merge>,<mq>} 
-gpgpu_cache:il1     4:128:4,L:R:f:N:L,A:2:32,4 # shader L1 instruction cache config  {<nsets>:<bsize>:<assoc>,<rep>:<wr>:<alloc>:<wr_alloc>,<mshr>:<N>:<merge>,<mq>} 
-gpgpu_cache:dl1     32:128:4,L:L:m:N:H,A:32:8,8 # per-shader L1 data cache config  {<nsets>:<bsize>:<assoc>,<rep>:<wr>:<alloc>:<wr_alloc>,<mshr>:<N>:<merge>,<mq> | none}
-gpgpu_cache:dl1PrefL1                 none # per-shader L1 data cache config  {<nsets>:<bsize>:<assoc>,<rep>:<wr>:<alloc>:<wr_alloc>,<mshr>:<N>:<merge>,<mq> | none}
-gpgpu_cache:dl1PreShared                 none # per-shader L1 data cache config  {<nsets>:<bsize>:<assoc>,<rep>:<wr>:<alloc>:<wr_alloc>,<mshr>:<N>:<merge>,<mq> | none}
-gmem_skip_L1D                          0 # global memory access skip L1D cache (implements -Xptxas -dlcm=cg, default=no skip)
-gpgpu_perfect_mem                      0 # enable perfect memory mode (no cache miss)
-n_regfile_gating_group                    4 # group of lanes that should be read/written together)
-gpgpu_clock_gated_reg_file                    0 # enable clock gated reg file for power calculations
-gpgpu_clock_gated_lanes                    0 # enable clock gated lanes for power calculations
-gpgpu_shader_registers                32768 # Number of registers per shader core. Limits number of concurrent CTAs. (default 8192)
-gpgpu_shader_cta                       8 # Maximum number of concurrent CTAs in shader (default 8)
-gpgpu_num_cta_barriers                   16 # Maximum number of named barriers per CTA (default 16)
-gpgpu_n_clusters                      15 # number of processing clusters
-gpgpu_n_cores_per_cluster                    1 # number of simd cores per cluster
-gpgpu_n_cluster_ejection_buffer_size                    8 # number of packets in ejection buffer
-gpgpu_n_ldst_response_buffer_size                    2 # number of response packets in ld/st unit ejection buffer
-gpgpu_shmem_size                   16384 # Size of shared memory per shader core (default 16kB)
-gpgpu_shmem_size                   49152 # Size of shared memory per shader core (default 16kB)
-gpgpu_shmem_size_PrefL1                16384 # Size of shared memory per shader core (default 16kB)
-gpgpu_shmem_size_PrefShared                16384 # Size of shared memory per shader core (default 16kB)
-gpgpu_shmem_num_banks                   32 # Number of banks in the shared memory in each shader core (default 16)
-gpgpu_shmem_limited_broadcast                    0 # Limit shared memory to do one broadcast per cycle (default on)
-gpgpu_shmem_warp_parts                    1 # Number of portions a warp is divided into for shared memory bank conflict check 
-gpgpu_warpdistro_shader                   -1 # Specify which shader core to collect the warp size distribution from
-gpgpu_warp_issue_shader                    0 # Specify which shader core to collect the warp issue distribution from
-gpgpu_local_mem_map                    1 # Mapping from local memory space address to simulated GPU physical address space (default = enabled)
-gpgpu_num_reg_banks                   16 # Number of register banks (default = 8)
-gpgpu_reg_bank_use_warp_id                    0 # Use warp ID in mapping registers to banks (default = off)
-gpgpu_operand_collector_num_units_sp                    6 # number of collector units (default = 4)
-gpgpu_operand_collector_num_units_sfu                    8 # number of collector units (default = 4)
-gpgpu_operand_collector_num_units_mem                    2 # number of collector units (default = 2)
-gpgpu_operand_collector_num_units_gen                    0 # number of collector units (default = 0)
-gpgpu_operand_collector_num_in_ports_sp                    2 # number of collector unit in ports (default = 1)
-gpgpu_operand_collector_num_in_ports_sfu                    1 # number of collector unit in ports (default = 1)
-gpgpu_operand_collector_num_in_ports_mem                    1 # number of collector unit in ports (default = 1)
-gpgpu_operand_collector_num_in_ports_gen                    0 # number of collector unit in ports (default = 0)
-gpgpu_operand_collector_num_out_ports_sp                    2 # number of collector unit in ports (default = 1)
-gpgpu_operand_collector_num_out_ports_sfu                    1 # number of collector unit in ports (default = 1)
-gpgpu_operand_collector_num_out_ports_mem                    1 # number of collector unit in ports (default = 1)
-gpgpu_operand_collector_num_out_ports_gen                    0 # number of collector unit in ports (default = 0)
-gpgpu_coalesce_arch                   13 # Coalescing arch (default = 13, anything else is off for now)
-gpgpu_num_sched_per_core                    1 # Number of warp schedulers per core
-gpgpu_max_insn_issue_per_warp                    1 # Max number of instructions that can be issued per warp in one cycle by scheduler
-gpgpu_simt_core_sim_order                    1 # Select the simulation order of cores in a cluster (0=Fix, 1=Round-Robin)
-gpgpu_pipeline_widths        2,1,1,2,1,1,2 # Pipeline widths ID_OC_SP,ID_OC_SFU,ID_OC_MEM,OC_EX_SP,OC_EX_SFU,OC_EX_MEM,EX_WB
-gpgpu_num_sp_units                     2 # Number of SP units (default=1)
-gpgpu_num_sfu_units                    1 # Number of SF units (default=1)
-gpgpu_num_mem_units                    1 # Number if ldst units (default=1) WARNING: not hooked up to anything
-gpgpu_scheduler                      gto # Scheduler configuration: < lrr | gto | two_level_active > If two_level_active:<num_active_warps>:<inner_prioritization>:<outer_prioritization>For complete list of prioritization values see shader.h enum scheduler_prioritization_typeDefault: gto
-gpgpu_dram_scheduler                    1 # 0 = fifo, 1 = FR-FCFS (defaul)
-gpgpu_dram_partition_queues              8:8:8:8 # i2$:$2d:d2$:$2i
-l2_ideal                               0 # Use a ideal L2 cache that always hit
-gpgpu_cache:dl2     64:128:8,L:B:m:W:L,A:32:4,4:0,32 # unified banked L2 data cache config  {<nsets>:<bsize>:<assoc>,<rep>:<wr>:<alloc>:<wr_alloc>,<mshr>:<N>:<merge>,<mq>}
-gpgpu_cache:dl2_texture_only                    0 # L2 cache used for texture only
-gpgpu_n_mem                            6 # number of memory modules (e.g. memory controllers) in gpu
-gpgpu_n_sub_partition_per_mchannel                    2 # number of memory subpartition in each memory module
-gpgpu_n_mem_per_ctrlr                    2 # number of memory chips per memory controller
-gpgpu_memlatency_stat                   14 # track and display latency statistics 0x2 enables MC, 0x4 enables queue logs
-gpgpu_frfcfs_dram_sched_queue_size                   16 # 0 = unlimited (default); # entries per chip
-gpgpu_dram_return_queue_size                  116 # 0 = unlimited (default); # entries per chip
-gpgpu_dram_buswidth                    4 # default = 4 bytes (8 bytes per cycle at DDR)
-gpgpu_dram_burst_length                    8 # Burst length of each DRAM request (default = 4 data bus cycle)
-dram_data_command_freq_ratio                    4 # Frequency ratio between DRAM data bus and command bus (default = 2 times, i.e. DDR)
-gpgpu_dram_timing_opt nbk=16:CCD=2:RRD=6:RCD=12:RAS=28:RP=12:RC=40: CL=12:WL=4:CDLR=5:WR=12:nbkgrp=4:CCDL=3:RTPL=2 # DRAM timing parameters = {nbk:tCCD:tRRD:tRCD:tRAS:tRP:tRC:CL:WL:tCDLR:tWR:nbkgrp:tCCDL:tRTPL}
-rop_latency                          120 # ROP queue latency (default 85)
-dram_latency                         100 # DRAM latency (default 30)
-gpgpu_mem_addr_mapping dramid@8;00000000.00000000.00000000.00000000.0000RRRR.RRRRRRRR.BBBCCCCB.CCSSSSSS # mapping memory address to dram model {dramid@<start bit>;<memory address map>}
-gpgpu_mem_addr_test                    0 # run sweep test to check address mapping for aliased address
-gpgpu_mem_address_mask                    1 # 0 = old addressing mask, 1 = new addressing mask, 2 = new add. mask + flipped bank sel and chip sel bits
-gpuwattch_xml_file  gpuwattch_gtx480.xml # GPUWattch XML file
-power_simulation_enabled                    1 # Turn on power simulator (1=On, 0=Off)
-power_per_cycle_dump                    0 # Dump detailed power output each cycle
-power_trace_enabled                    0 # produce a file for the power trace (1=On, 0=Off)
-power_trace_zlevel                     6 # Compression level of the power trace output log (0=no comp, 9=highest)
-steady_power_levels_enabled                    0 # produce a file for the steady power levels (1=On, 0=Off)
-steady_state_definition                  8:4 # allowed deviation:number of samples
-gpgpu_max_cycle                        0 # terminates gpu simulation early (0 = no limit)
-gpgpu_max_insn                         0 # terminates gpu simulation early (0 = no limit)
-gpgpu_max_cta                          0 # terminates gpu simulation early (0 = no limit)
-gpgpu_runtime_stat                   500 # display runtime statistics such as dram utilization {<freq>:<flag>}
-liveness_message_freq                    1 # Minimum number of seconds between simulation liveness messages (0 = always print)
-gpgpu_flush_l1_cache                    0 # Flush L1 cache at the end of each kernel call
-gpgpu_flush_l2_cache                    0 # Flush L2 cache at the end of each kernel call
-gpgpu_deadlock_detect                    1 # Stop the simulation at deadlock (1=on (default), 0=off)
-gpgpu_ptx_instruction_classification                    0 # if enabled will classify ptx instruction types per kernel (Max 255 kernels now)
-gpgpu_ptx_sim_mode                     0 # Select between Performance (default) or Functional simulation (1)
-gpgpu_clock_domains 700.0:700.0:700.0:924.0 # Clock Domain Frequencies in MhZ {<Core Clock>:<ICNT Clock>:<L2 Clock>:<DRAM Clock>}
-gpgpu_max_concurrent_kernel                    8 # maximum kernels that can run concurrently on GPU
-gpgpu_cflog_interval                    0 # Interval between each snapshot in control flow logger
-visualizer_enabled                     0 # Turn on visualizer output (1=On, 0=Off)
-visualizer_outputfile                 NULL # Specifies the output log file for visualizer
-visualizer_zlevel                      6 # Compression level of the visualizer output log (0=no comp, 9=highest)
-trace_enabled                          0 # Turn on traces
-trace_components                    none # comma seperated list of traces to enable. Complete list found in trace_streams.tup. Default none
-trace_sampling_core                    0 # The core which is printed using CORE_DPRINTF. Default 0
-trace_sampling_memory_partition                   -1 # The memory partition which is printed using MEMPART_DPRINTF. Default -1 (i.e. all)
-enable_ptx_file_line_stats                    1 # Turn on PTX source line statistic profiling. (1 = On)
-ptx_line_stats_filename gpgpu_inst_stats.txt # Output file for PTX source line statistics.
-save_embedded_ptx                      0 # saves ptx files embedded in binary as <n>.ptx
-keep                                   0 # keep intermediate files created by GPGPU-Sim when interfacing with external programs
-gpgpu_ptx_save_converted_ptxplus                    0 # Saved converted ptxplus to a file
-ptx_opcode_latency_int         4,13,4,5,145 # Opcode latencies for integers <ADD,MAX,MUL,MAD,DIV>Default 1,1,19,25,145
-ptx_opcode_latency_fp          4,13,4,5,39 # Opcode latencies for single precision floating points <ADD,MAX,MUL,MAD,DIV>Default 1,1,1,1,30
-ptx_opcode_latency_dp         8,19,8,8,330 # Opcode latencies for double precision floating points <ADD,MAX,MUL,MAD,DIV>Default 8,8,8,8,335
-ptx_opcode_initiation_int            1,2,2,1,8 # Opcode initiation intervals for integers <ADD,MAX,MUL,MAD,DIV>Default 1,1,4,4,32
-ptx_opcode_initiation_fp            1,2,1,1,4 # Opcode initiation intervals for single precision floating points <ADD,MAX,MUL,MAD,DIV>Default 1,1,1,1,5
-ptx_opcode_initiation_dp         8,16,8,8,130 # Opcode initiation intervals for double precision floating points <ADD,MAX,MUL,MAD,DIV>Default 8,8,8,8,130
DRAM Timing Options:
nbk                                    16 # number of banks
CCD                                     2 # column to column delay
RRD                                     6 # minimal delay between activation of rows in different banks
RCD                                    12 # row to column delay
RAS                                    28 # time needed to activate row
RP                                     12 # time needed to precharge (deactivate) row
RC                                     40 # row cycle time
CDLR                                    5 # switching from write to read (changes tWTR)
WR                                     12 # last data-in to row precharge
CL                                     12 # CAS latency
WL                                      4 # Write latency
nbkgrp                                  4 # number of bank groups
CCDL                                    3 # column to column delay between accesses to different bank groups
RTPL                                    2 # read to precharge delay between accesses to different bank groups
Total number of memory sub partition = 12
addr_dec_mask[CHIP]  = 0000000000000000 	high:64 low:0
addr_dec_mask[BK]    = 000000000000e100 	high:16 low:8
addr_dec_mask[ROW]   = 000000000fff0000 	high:28 low:16
addr_dec_mask[COL]   = 0000000000001eff 	high:13 low:0
addr_dec_mask[BURST] = 000000000000003f 	high:6 low:0
sub_partition_id_mask = 0000000000000100
GPGPU-Sim uArch: clock freqs: 700000000.000000:700000000.000000:700000000.000000:924000000.000000
GPGPU-Sim uArch: clock periods: 0.00000000142857142857:0.00000000142857142857:0.00000000142857142857:0.00000000108225108225
*** Initializing Memory Statistics ***
GPGPU-Sim uArch: interconnect node map (shaderID+MemID to icntID)
GPGPU-Sim uArch: Memory nodes ID start from index: 15
GPGPU-Sim uArch:    0   1   2   3   4
GPGPU-Sim uArch:    5   6   7   8   9
GPGPU-Sim uArch:   10  11  12  13  14
GPGPU-Sim uArch:   15  16  17  18  19
GPGPU-Sim uArch:   20  21  22  23  24
GPGPU-Sim uArch:   25  26
GPGPU-Sim uArch: interconnect node reverse map (icntID to shaderID+MemID)
GPGPU-Sim uArch: Memory nodes start from ID: 15
GPGPU-Sim uArch:    0   1   2   3   4
GPGPU-Sim uArch:    5   6   7   8   9
GPGPU-Sim uArch:   10  11  12  13  14
GPGPU-Sim uArch:   15  16  17  18  19
GPGPU-Sim uArch:   20  21  22  23  24
GPGPU-Sim uArch:   25  26
03b9286cba6ad3de9af5d785bd8bc158  /home/kishore/project_source/gpu_class_proj/gpgpusim-benchmarks-master/bin/release/NN
GPGPU-Sim uArch: performance model initialization complete.
GPGPU-Sim PTX: __cudaRegisterFatBinary, fat_cubin_handle = 1, filename=NN.cu
self exe links to: /home/kishore/project_source/gpu_class_proj/gpgpusim-benchmarks-master/bin/release/NN
Running md5sum using "md5sum /home/kishore/project_source/gpu_class_proj/gpgpusim-benchmarks-master/bin/release/NN "
Running cuobjdump using "$CUDA_INSTALL_PATH/bin/cuobjdump -ptx -elf -sass /home/kishore/project_source/gpu_class_proj/gpgpusim-benchmarks-master/bin/release/NN > _cuobjdump_complete_output_Rt3uRk"
Parsing file _cuobjdump_complete_output_Rt3uRk
######### cuobjdump parser ########
## Adding new section PTX
Adding ptx filename: _cuobjdump_1.ptx
Adding arch: sm_10
Adding identifier: NN.cu
## Adding new section ELF
Adding arch: sm_10
Adding identifier: NN.cu
## Adding new section ELF
Adding arch: sm_20
Adding identifier: NN.cu
## Adding new section PTX
Adding ptx filename: _cuobjdump_2.ptx
Adding arch: sm_20
Adding identifier: NN.cu
Done parsing!!!
GPGPU-Sim PTX: __cudaRegisterFunction _Z18executeFourthLayerPfS_S_ : hostFun 0x0x4010a0, fat_cubin_handle = 1
GPGPU-Sim PTX: allocating constant region for "kernelTemplate" from 0x100 to 0x164 (global memory space) 1
GPGPU-Sim PTX: instruction assembly for function '_Z17executeFirstLayerPfS_S_'...   done.
GPGPU-Sim PTX: finding reconvergence points for '_Z17executeFirstLayerPfS_S_'...
GPGPU-Sim PTX: Finding dominators for '_Z17executeFirstLayerPfS_S_'...
GPGPU-Sim PTX: Finding immediate dominators for '_Z17executeFirstLayerPfS_S_'...
GPGPU-Sim PTX: Finding postdominators for '_Z17executeFirstLayerPfS_S_'...
GPGPU-Sim PTX: Finding immediate postdominators for '_Z17executeFirstLayerPfS_S_'...
GPGPU-Sim PTX: pre-decoding instructions for '_Z17executeFirstLayerPfS_S_'...
GPGPU-Sim PTX: reconvergence points for _Z17executeFirstLayerPfS_S_...
GPGPU-Sim PTX:  1 (potential) branch divergence @  PC=0x100 (_1.ptx:100) @%p1 bra $Lt_0_4098;
GPGPU-Sim PTX:    immediate post dominator      @  PC=0x108 (_1.ptx:102) cvt.f64.f32 %fd1, %f1;
GPGPU-Sim PTX:  2 (potential) branch divergence @  PC=0x148 (_1.ptx:110) @!%p2 bra $Lt_0_4866;
GPGPU-Sim PTX:    immediate post dominator      @  PC=0x2a8 (_1.ptx:162) cvt.f64.f32 %fd5, %f29;
GPGPU-Sim PTX:  3 (potential) branch divergence @  PC=0x230 (_1.ptx:142) bra.uni $Lt_0_4610;
GPGPU-Sim PTX:    immediate post dominator      @  PC=0x2a8 (_1.ptx:162) cvt.f64.f32 %fd5, %f29;
GPGPU-Sim PTX: ... end of reconvergence points for _Z17executeFirstLayerPfS_S_
GPGPU-Sim PTX: ... done pre-decoding instructions for '_Z17executeFirstLayerPfS_S_'.
GPGPU-Sim PTX: allocating constant region for "kernelTemplate2" from 0x180 to 0x1e4 (global memory space) 2
GPGPU-Sim PTX: instruction assembly for function '_Z18executeSecondLayerPfS_S_'...   done.
GPGPU-Sim PTX: finding reconvergence points for '_Z18executeSecondLayerPfS_S_'...
GPGPU-Sim PTX: Finding dominators for '_Z18executeSecondLayerPfS_S_'...
GPGPU-Sim PTX: Finding immediate dominators for '_Z18executeSecondLayerPfS_S_'...
GPGPU-Sim PTX: Finding postdominators for '_Z18executeSecondLayerPfS_S_'...
GPGPU-Sim PTX: Finding immediate postdominators for '_Z18executeSecondLayerPfS_S_'...
GPGPU-Sim PTX: pre-decoding instructions for '_Z18executeSecondLayerPfS_S_'...
GPGPU-Sim PTX: reconvergence points for _Z18executeSecondLayerPfS_S_...
GPGPU-Sim PTX:  1 (potential) branch divergence @  PC=0x4a0 (_1.ptx:251) @%p1 bra $Lt_1_5634;
GPGPU-Sim PTX:    immediate post dominator      @  PC=0x4a8 (_1.ptx:253) cvt.f64.f32 %fd1, %f1;
GPGPU-Sim PTX:  2 (potential) branch divergence @  PC=0x4e8 (_1.ptx:261) @!%p2 bra $Lt_1_6402;
GPGPU-Sim PTX:    immediate post dominator      @  PC=0x648 (_1.ptx:313) cvt.f64.f32 %fd5, %f44;
GPGPU-Sim PTX:  3 (potential) branch divergence @  PC=0x5d0 (_1.ptx:293) bra.uni $Lt_1_6146;
GPGPU-Sim PTX:    immediate post dominator      @  PC=0x648 (_1.ptx:313) cvt.f64.f32 %fd5, %f44;
GPGPU-Sim PTX: ... end of reconvergence points for _Z18executeSecondLayerPfS_S_
GPGPU-Sim PTX: ... done pre-decoding instructions for '_Z18executeSecondLayerPfS_S_'.
GPGPU-Sim PTX: instruction assembly for function '_Z17executeThirdLayerPfS_S_'...   done.
GPGPU-Sim PTX: finding reconvergence points for '_Z17executeThirdLayerPfS_S_'...
GPGPU-Sim PTX: Finding dominators for '_Z17executeThirdLayerPfS_S_'...
GPGPU-Sim PTX: Finding immediate dominators for '_Z17executeThirdLayerPfS_S_'...
GPGPU-Sim PTX: Finding postdominators for '_Z17executeThirdLayerPfS_S_'...
GPGPU-Sim PTX: Finding immediate postdominators for '_Z17executeThirdLayerPfS_S_'...
GPGPU-Sim PTX: pre-decoding instructions for '_Z17executeThirdLayerPfS_S_'...
GPGPU-Sim PTX: reconvergence points for _Z17executeThirdLayerPfS_S_...
GPGPU-Sim PTX:  1 (potential) branch divergence @  PC=0x788 (_1.ptx:373) @%p1 bra $Lt_2_4098;
GPGPU-Sim PTX:    immediate post dominator      @  PC=0x790 (_1.ptx:375) cvt.f64.f32 %fd1, %f1;
GPGPU-Sim PTX:  2 (potential) branch divergence @  PC=0x7d0 (_1.ptx:383) @!%p2 bra $Lt_2_4866;
GPGPU-Sim PTX:    immediate post dominator      @  PC=0x930 (_1.ptx:435) cvt.f64.f32 %fd5, %f29;
GPGPU-Sim PTX:  3 (potential) branch divergence @  PC=0x8b8 (_1.ptx:415) bra.uni $Lt_2_4610;
GPGPU-Sim PTX:    immediate post dominator      @  PC=0x930 (_1.ptx:435) cvt.f64.f32 %fd5, %f29;
GPGPU-Sim PTX: ... end of reconvergence points for _Z17executeThirdLayerPfS_S_
GPGPU-Sim PTX: ... done pre-decoding instructions for '_Z17executeThirdLayerPfS_S_'.
GPGPU-Sim PTX: instruction assembly for function '_Z18executeFourthLayerPfS_S_'...   done.
GPGPU-Sim PTX: finding reconvergence points for '_Z18executeFourthLayerPfS_S_'...
GPGPU-Sim PTX: Finding dominators for '_Z18executeFourthLayerPfS_S_'...
GPGPU-Sim PTX: Finding immediate dominators for '_Z18executeFourthLayerPfS_S_'...
GPGPU-Sim PTX: Finding postdominators for '_Z18executeFourthLayerPfS_S_'...
GPGPU-Sim PTX: Finding immediate postdominators for '_Z18executeFourthLayerPfS_S_'...
GPGPU-Sim PTX: pre-decoding instructions for '_Z18executeFourthLayerPfS_S_'...
GPGPU-Sim PTX: reconvergence points for _Z18executeFourthLayerPfS_S_...
GPGPU-Sim PTX:  1 (potential) branch divergence @  PC=0xa50 (_1.ptx:491) @%p1 bra $Lt_3_4098;
GPGPU-Sim PTX:    immediate post dominator      @  PC=0xa58 (_1.ptx:493) cvt.f64.f32 %fd1, %f1;
GPGPU-Sim PTX:  2 (potential) branch divergence @  PC=0xa98 (_1.ptx:501) @!%p2 bra $Lt_3_4866;
GPGPU-Sim PTX:    immediate post dominator      @  PC=0xbf8 (_1.ptx:553) cvt.f64.f32 %fd5, %f29;
GPGPU-Sim PTX:  3 (potential) branch divergence @  PC=0xb80 (_1.ptx:533) bra.uni $Lt_3_4610;
GPGPU-Sim PTX:    immediate post dominator      @  PC=0xbf8 (_1.ptx:553) cvt.f64.f32 %fd5, %f29;
GPGPU-Sim PTX: ... end of reconvergence points for _Z18executeFourthLayerPfS_S_
GPGPU-Sim PTX: ... done pre-decoding instructions for '_Z18executeFourthLayerPfS_S_'.
GPGPU-Sim PTX: finished parsing EMBEDDED .ptx file _1.ptx
Adding _cuobjdump_2.ptx with cubin handle 1
GPGPU-Sim PTX: extracting embedded .ptx to temporary file "_ptx_BCrc9B"
Running: cat _ptx_BCrc9B | sed 's/.version 1.5/.version 1.4/' | sed 's/, texmode_independent//' | sed 's/\(\.extern \.const\[1\] .b8 \w\+\)\[\]/\1\[1\]/' | sed 's/const\[.\]/const\[0\]/g' > _ptx2_XIkVqT
GPGPU-Sim PTX: generating ptxinfo using "$CUDA_INSTALL_PATH/bin/ptxas --gpu-name=sm_20 -v _ptx2_XIkVqT --output-file  /dev/null 2> _ptx_BCrc9Binfo"
GPGPU-Sim PTX: Kernel '_Z18executeFourthLayerPfS_S_' : regs=12, lmem=0, smem=0, cmem=288
GPGPU-Sim PTX: Kernel '_Z17executeThirdLayerPfS_S_' : regs=12, lmem=0, smem=0, cmem=288
GPGPU-Sim PTX: Kernel '_Z18executeSecondLayerPfS_S_' : regs=22, lmem=0, smem=0, cmem=288
GPGPU-Sim PTX: Kernel '_Z17executeFirstLayerPfS_S_' : regs=17, lmem=0, smem=0, cmem=288
GPGPU-Sim PTX: removing ptxinfo using "rm -f _ptx_BCrc9B _ptx2_XIkVqT _ptx_BCrc9Binfo"
GPGPU-Sim PTX: loading globals with explicit initializers... 
GPGPU-Sim PTX: finished loading globals (0 bytes total).
GPGPU-Sim PTX: loading constants with explicit initializers...  done.
GPGPU-Sim PTX: __cudaRegisterFunction _Z17executeThirdLayerPfS_S_ : hostFun 0x0x401130, fat_cubin_handle = 1
GPGPU-Sim PTX: __cudaRegisterFunction _Z18executeSecondLayerPfS_S_ : hostFun 0x0x4011c0, fat_cubin_handle = 1
GPGPU-Sim PTX: __cudaRegisterFunction _Z17executeFirstLayerPfS_S_ : hostFun 0x0x401250, fat_cubin_handle = 1
GPGPU-Sim PTX: __cudaRegisterVar: hostVar = 0x610180; deviceAddress = kernelTemplate; deviceName = kernelTemplate
GPGPU-Sim PTX: __cudaRegisterVar: Registering const memory space of 100 bytes
GPGPU-Sim PTX registering constant kernelTemplate (100 bytes) to name mapping
GPGPU-Sim PTX: __cudaRegisterVar: hostVar = 0x610200; deviceAddress = kernelTemplate2; deviceName = kernelTemplate2
GPGPU-Sim PTX: __cudaRegisterVar: Registering const memory space of 100 bytes
GPGPU-Sim PTX registering constant kernelTemplate2 (100 bytes) to name mapping
magic number = 2051
number of items = 10000
number of rows = 28
number of rows = 28
NUM=28

GPGPU-Sim PTX: cudaLaunch for 0x0x401250 (mode=performance simulation) on stream 0
GPGPU-Sim PTX: pushing kernel '_Z17executeFirstLayerPfS_S_' to stream 0, gridDim= (6,28,1) blockDim = (13,13,1) 
kernel '_Z17executeFirstLayerPfS_S_' transfer to GPU hardware scheduler
GPGPU-Sim uArch: Shader 1 bind to kernel 1 '_Z17executeFirstLayerPfS_S_'
GPGPU-Sim uArch: CTA/core = 8, limited by: threads regs cta_limit
GPGPU-Sim uArch: core:  1, cta: 0 initialized @(1,0)
GPGPU-Sim uArch: Shader 2 bind to kernel 1 '_Z17executeFirstLayerPfS_S_'
GPGPU-Sim uArch: core:  2, cta: 0 initialized @(1,0)
GPGPU-Sim uArch: Shader 3 bind to kernel 1 '_Z17executeFirstLayerPfS_S_'
GPGPU-Sim uArch: core:  3, cta: 0 initialized @(1,0)
GPGPU-Sim uArch: Shader 4 bind to kernel 1 '_Z17executeFirstLayerPfS_S_'
GPGPU-Sim uArch: core:  4, cta: 0 initialized @(1,0)
GPGPU-Sim uArch: Shader 5 bind to kernel 1 '_Z17executeFirstLayerPfS_S_'
GPGPU-Sim uArch: core:  5, cta: 0 initialized @(1,0)
GPGPU-Sim uArch: Shader 6 bind to kernel 1 '_Z17executeFirstLayerPfS_S_'
GPGPU-Sim uArch: core:  6, cta: 0 initialized @(1,0)
GPGPU-Sim uArch: Shader 7 bind to kernel 1 '_Z17executeFirstLayerPfS_S_'
GPGPU-Sim uArch: core:  7, cta: 0 initialized @(1,0)
GPGPU-Sim uArch: Shader 8 bind to kernel 1 '_Z17executeFirstLayerPfS_S_'
GPGPU-Sim uArch: core:  8, cta: 0 initialized @(1,0)
GPGPU-Sim uArch: Shader 9 bind to kernel 1 '_Z17executeFirstLayerPfS_S_'
GPGPU-Sim uArch: core:  9, cta: 0 initialized @(1,0)
GPGPU-Sim uArch: Shader 10 bind to kernel 1 '_Z17executeFirstLayerPfS_S_'
GPGPU-Sim uArch: core: 10, cta: 0 initialized @(1,0)
GPGPU-Sim uArch: Shader 11 bind to kernel 1 '_Z17executeFirstLayerPfS_S_'
GPGPU-Sim uArch: core: 11, cta: 0 initialized @(1,0)
GPGPU-Sim uArch: Shader 12 bind to kernel 1 '_Z17executeFirstLayerPfS_S_'
GPGPU-Sim uArch: core: 12, cta: 0 initialized @(1,0)
GPGPU-Sim uArch: Shader 13 bind to kernel 1 '_Z17executeFirstLayerPfS_S_'
GPGPU-Sim uArch: core: 13, cta: 0 initialized @(1,0)
GPGPU-Sim uArch: Shader 14 bind to kernel 1 '_Z17executeFirstLayerPfS_S_'
GPGPU-Sim uArch: core: 14, cta: 0 initialized @(1,0)
GPGPU-Sim uArch: Shader 0 bind to kernel 1 '_Z17executeFirstLayerPfS_S_'
GPGPU-Sim uArch: core:  0, cta: 0 initialized @(1,0)
GPGPU-Sim uArch: core:  1, cta: 1 initialized @(2,0)
GPGPU-Sim uArch: core:  2, cta: 1 initialized @(2,0)
GPGPU-Sim uArch: core:  3, cta: 1 initialized @(2,0)
GPGPU-Sim uArch: core:  4, cta: 1 initialized @(2,0)
GPGPU-Sim uArch: core:  5, cta: 1 initialized @(2,0)
GPGPU-Sim uArch: core:  6, cta: 1 initialized @(2,0)
GPGPU-Sim uArch: core:  7, cta: 1 initialized @(2,0)
GPGPU-Sim uArch: core:  8, cta: 1 initialized @(2,0)
GPGPU-Sim uArch: core:  9, cta: 1 initialized @(2,0)
GPGPU-Sim uArch: core: 10, cta: 1 initialized @(2,0)
GPGPU-Sim uArch: core: 11, cta: 1 initialized @(2,0)
GPGPU-Sim uArch: core: 12, cta: 1 initialized @(2,0)
GPGPU-Sim uArch: core: 13, cta: 1 initialized @(2,0)
GPGPU-Sim uArch: core: 14, cta: 1 initialized @(2,0)
GPGPU-Sim uArch: core:  0, cta: 1 initialized @(2,0)
GPGPU-Sim uArch: core:  1, cta: 2 initialized @(3,0)
GPGPU-Sim uArch: core:  2, cta: 2 initialized @(3,0)
GPGPU-Sim uArch: core:  3, cta: 2 initialized @(3,0)
GPGPU-Sim uArch: core:  4, cta: 2 initialized @(3,0)
GPGPU-Sim uArch: core:  5, cta: 2 initialized @(3,0)
GPGPU-Sim uArch: core:  6, cta: 2 initialized @(3,0)
GPGPU-Sim uArch: core:  7, cta: 2 initialized @(3,0)
GPGPU-Sim uArch: core:  8, cta: 2 initialized @(3,0)
GPGPU-Sim uArch: core:  9, cta: 2 initialized @(3,0)
GPGPU-Sim uArch: core: 10, cta: 2 initialized @(3,0)
GPGPU-Sim uArch: core: 11, cta: 2 initialized @(3,0)
GPGPU-Sim uArch: core: 12, cta: 2 initialized @(3,0)
GPGPU-Sim uArch: core: 13, cta: 2 initialized @(3,0)
GPGPU-Sim uArch: core: 14, cta: 2 initialized @(3,0)
GPGPU-Sim uArch: core:  0, cta: 2 initialized @(3,0)
GPGPU-Sim uArch: core:  1, cta: 3 initialized @(4,0)
GPGPU-Sim uArch: core:  2, cta: 3 initialized @(4,0)
GPGPU-Sim uArch: core:  3, cta: 3 initialized @(4,0)
GPGPU-Sim uArch: core:  4, cta: 3 initialized @(4,0)
GPGPU-Sim uArch: core:  5, cta: 3 initialized @(4,0)
GPGPU-Sim uArch: core:  6, cta: 3 initialized @(4,0)
GPGPU-Sim uArch: core:  7, cta: 3 initialized @(4,0)
GPGPU-Sim uArch: core:  8, cta: 3 initialized @(4,0)
GPGPU-Sim uArch: core:  9, cta: 3 initialized @(4,0)
GPGPU-Sim uArch: core: 10, cta: 3 initialized @(4,0)
GPGPU-Sim uArch: core: 11, cta: 3 initialized @(4,0)
GPGPU-Sim uArch: core: 12, cta: 3 initialized @(4,0)
GPGPU-Sim uArch: core: 13, cta: 3 initialized @(4,0)
GPGPU-Sim uArch: core: 14, cta: 3 initialized @(4,0)
GPGPU-Sim uArch: core:  0, cta: 3 initialized @(4,0)
GPGPU-Sim uArch: core:  1, cta: 4 initialized @(5,0)
GPGPU-Sim uArch: core:  2, cta: 4 initialized @(5,0)
GPGPU-Sim uArch: core:  3, cta: 4 initialized @(5,0)
GPGPU-Sim uArch: core:  4, cta: 4 initialized @(5,0)
GPGPU-Sim uArch: core:  5, cta: 4 initialized @(5,0)
GPGPU-Sim uArch: core:  6, cta: 4 initialized @(5,0)
GPGPU-Sim uArch: core:  7, cta: 4 initialized @(5,0)
GPGPU-Sim uArch: core:  8, cta: 4 initialized @(5,0)
GPGPU-Sim uArch: core:  9, cta: 4 initialized @(5,0)
GPGPU-Sim uArch: core: 10, cta: 4 initialized @(5,0)
GPGPU-Sim uArch: core: 11, cta: 4 initialized @(5,0)
GPGPU-Sim uArch: core: 12, cta: 4 initialized @(5,0)
GPGPU-Sim uArch: core: 13, cta: 4 initialized @(5,0)
GPGPU-Sim uArch: core: 14, cta: 4 initialized @(5,0)
GPGPU-Sim uArch: core:  0, cta: 4 initialized @(5,0)
GPGPU-Sim uArch: core:  1, cta: 5 initialized @(6,0)
GPGPU-Sim uArch: core:  2, cta: 5 initialized @(6,0)
GPGPU-Sim uArch: core:  3, cta: 5 initialized @(6,0)
GPGPU-Sim uArch: core:  4, cta: 5 initialized @(6,0)
GPGPU-Sim uArch: core:  5, cta: 5 initialized @(6,0)
GPGPU-Sim uArch: core:  6, cta: 5 initialized @(6,0)
GPGPU-Sim uArch: core:  7, cta: 5 initialized @(6,0)
GPGPU-Sim uArch: core:  8, cta: 5 initialized @(6,0)
GPGPU-Sim uArch: core:  9, cta: 5 initialized @(6,0)
GPGPU-Sim uArch: core: 10, cta: 5 initialized @(6,0)
GPGPU-Sim uArch: core: 11, cta: 5 initialized @(6,0)
GPGPU-Sim uArch: core: 12, cta: 5 initialized @(6,0)
GPGPU-Sim uArch: core: 13, cta: 5 initialized @(6,0)
GPGPU-Sim uArch: core: 14, cta: 5 initialized @(6,0)
GPGPU-Sim uArch: core:  0, cta: 5 initialized @(6,0)
GPGPU-Sim uArch: core:  1, cta: 6 initialized @(7,0)
GPGPU-Sim uArch: core:  2, cta: 6 initialized @(7,0)
GPGPU-Sim uArch: core:  3, cta: 6 initialized @(7,0)
GPGPU-Sim uArch: core:  4, cta: 6 initialized @(7,0)
GPGPU-Sim uArch: core:  5, cta: 6 initialized @(7,0)
GPGPU-Sim uArch: core:  6, cta: 6 initialized @(7,0)
GPGPU-Sim uArch: core:  7, cta: 6 initialized @(7,0)
GPGPU-Sim uArch: core:  8, cta: 6 initialized @(7,0)
GPGPU-Sim uArch: core:  9, cta: 6 initialized @(7,0)
GPGPU-Sim uArch: core: 10, cta: 6 initialized @(7,0)
GPGPU-Sim uArch: core: 11, cta: 6 initialized @(7,0)
GPGPU-Sim uArch: core: 12, cta: 6 initialized @(7,0)
GPGPU-Sim uArch: core: 13, cta: 6 initialized @(7,0)
GPGPU-Sim uArch: core: 14, cta: 6 initialized @(7,0)
GPGPU-Sim uArch: core:  0, cta: 6 initialized @(7,0)
GPGPU-Sim uArch: core:  1, cta: 7 initialized @(8,0)
GPGPU-Sim uArch: core:  2, cta: 7 initialized @(8,0)
GPGPU-Sim uArch: core:  3, cta: 7 initialized @(8,0)
GPGPU-Sim uArch: core:  4, cta: 7 initialized @(8,0)
GPGPU-Sim uArch: core:  5, cta: 7 initialized @(8,0)
GPGPU-Sim uArch: core:  6, cta: 7 initialized @(8,0)
GPGPU-Sim uArch: core:  7, cta: 7 initialized @(8,0)
GPGPU-Sim uArch: core:  8, cta: 7 initialized @(8,0)
GPGPU-Sim uArch: core:  9, cta: 7 initialized @(8,0)
GPGPU-Sim uArch: core: 10, cta: 7 initialized @(8,0)
GPGPU-Sim uArch: core: 11, cta: 7 initialized @(8,0)
GPGPU-Sim uArch: core: 12, cta: 7 initialized @(8,0)
GPGPU-Sim uArch: core: 13, cta: 7 initialized @(8,0)
GPGPU-Sim uArch: core: 14, cta: 7 initialized @(8,0)
GPGPU-Sim uArch: core:  0, cta: 7 initialized @(8,0)
GPGPU-Sim uArch: cycles simulated: 500  inst.: 61134 (ipc=122.3) sim_rate=30567 (inst/sec) elapsed = 0:0:00:02 / Tue May 12 19:28:29 2015
GPGPU-Sim PTX: 100000 instructions simulated : ctaid=(5,0,0) tid=(1,0,0)
GPGPU-Sim PTX: 200000 instructions simulated : ctaid=(3,9,0) tid=(5,6,0)
GPGPU-Sim uArch: cycles simulated: 1000  inst.: 218458 (ipc=218.5) sim_rate=43691 (inst/sec) elapsed = 0:0:00:05 / Tue May 12 19:28:32 2015
GPGPU-Sim PTX: 300000 instructions simulated : ctaid=(2,14,0) tid=(6,5,0)
GPGPU-Sim PTX: 400000 instructions simulated : ctaid=(3,13,0) tid=(9,5,0)
GPGPU-Sim uArch: cycles simulated: 1500  inst.: 399019 (ipc=266.0) sim_rate=57002 (inst/sec) elapsed = 0:0:00:07 / Tue May 12 19:28:34 2015
GPGPU-Sim uArch: cycles simulated: 2000  inst.: 425212 (ipc=212.6) sim_rate=53151 (inst/sec) elapsed = 0:0:00:08 / Tue May 12 19:28:35 2015
GPGPU-Sim PTX: 500000 instructions simulated : ctaid=(0,1,0) tid=(12,7,0)
GPGPU-Sim uArch: cycles simulated: 2500  inst.: 534874 (ipc=213.9) sim_rate=53487 (inst/sec) elapsed = 0:0:00:10 / Tue May 12 19:28:37 2015
GPGPU-Sim PTX: 600000 instructions simulated : ctaid=(2,4,0) tid=(11,3,0)
GPGPU-Sim PTX: 700000 instructions simulated : ctaid=(4,4,0) tid=(3,9,0)
GPGPU-Sim uArch: cycles simulated: 3000  inst.: 760768 (ipc=253.6) sim_rate=63397 (inst/sec) elapsed = 0:0:00:12 / Tue May 12 19:28:39 2015
GPGPU-Sim PTX: 800000 instructions simulated : ctaid=(3,0,0) tid=(11,6,0)
GPGPU-Sim PTX: 900000 instructions simulated : ctaid=(2,1,0) tid=(2,10,0)
GPGPU-Sim uArch: cycles simulated: 3500  inst.: 983258 (ipc=280.9) sim_rate=75635 (inst/sec) elapsed = 0:0:00:13 / Tue May 12 19:28:40 2015
GPGPU-Sim PTX: 1000000 instructions simulated : ctaid=(3,1,0) tid=(3,10,0)
GPGPU-Sim PTX: 1100000 instructions simulated : ctaid=(2,0,0) tid=(8,0,0)
GPGPU-Sim PTX: 1200000 instructions simulated : ctaid=(0,1,0) tid=(12,5,0)
GPGPU-Sim uArch: cycles simulated: 4000  inst.: 1208982 (ipc=302.2) sim_rate=80598 (inst/sec) elapsed = 0:0:00:15 / Tue May 12 19:28:42 2015
GPGPU-Sim PTX: 1300000 instructions simulated : ctaid=(3,0,0) tid=(6,9,0)
GPGPU-Sim PTX: 1400000 instructions simulated : ctaid=(1,3,0) tid=(7,9,0)
GPGPU-Sim uArch: cycles simulated: 4500  inst.: 1430066 (ipc=317.8) sim_rate=84121 (inst/sec) elapsed = 0:0:00:17 / Tue May 12 19:28:44 2015
GPGPU-Sim PTX: 1500000 instructions simulated : ctaid=(4,3,0) tid=(12,7,0)
GPGPU-Sim PTX: 1600000 instructions simulated : ctaid=(2,1,0) tid=(4,11,0)
GPGPU-Sim uArch: cycles simulated: 5000  inst.: 1642469 (ipc=328.5) sim_rate=86445 (inst/sec) elapsed = 0:0:00:19 / Tue May 12 19:28:46 2015
GPGPU-Sim PTX: 1700000 instructions simulated : ctaid=(0,0,0) tid=(3,2,0)
GPGPU-Sim PTX: 1800000 instructions simulated : ctaid=(4,0,0) tid=(1,11,0)
GPGPU-Sim uArch: cycles simulated: 5500  inst.: 1820781 (ipc=331.1) sim_rate=91039 (inst/sec) elapsed = 0:0:00:20 / Tue May 12 19:28:47 2015
GPGPU-Sim PTX: 1900000 instructions simulated : ctaid=(0,3,0) tid=(4,11,0)
GPGPU-Sim uArch: Shader 13 finished CTA #0 (5874,0), 7 CTAs running
GPGPU-Sim uArch: core: 13, cta: 0 initialized @(5875,0)
GPGPU-Sim PTX: 2000000 instructions simulated : ctaid=(3,2,0) tid=(12,2,0)
GPGPU-Sim uArch: Shader 0 finished CTA #0 (5982,0), 7 CTAs running
GPGPU-Sim uArch: core:  0, cta: 0 initialized @(5983,0)
GPGPU-Sim uArch: cycles simulated: 6000  inst.: 2004656 (ipc=334.1) sim_rate=87158 (inst/sec) elapsed = 0:0:00:23 / Tue May 12 19:28:50 2015
GPGPU-Sim uArch: Shader 14 finished CTA #0 (6153,0), 7 CTAs running
GPGPU-Sim uArch: core: 14, cta: 0 initialized @(6154,0)
GPGPU-Sim uArch: Shader 12 finished CTA #0 (6165,0), 7 CTAs running
GPGPU-Sim uArch: core: 12, cta: 0 initialized @(6166,0)
GPGPU-Sim uArch: Shader 10 finished CTA #0 (6196,0), 7 CTAs running
GPGPU-Sim uArch: core: 10, cta: 0 initialized @(6197,0)
GPGPU-Sim PTX: 2100000 instructions simulated : ctaid=(2,5,0) tid=(11,8,0)
GPGPU-Sim uArch: Shader 5 finished CTA #0 (6216,0), 7 CTAs running
GPGPU-Sim uArch: Shader 6 finished CTA #0 (6216,0), 7 CTAs running
GPGPU-Sim uArch: core:  5, cta: 0 initialized @(6217,0)
GPGPU-Sim uArch: core:  6, cta: 0 initialized @(6217,0)
GPGPU-Sim uArch: Shader 7 finished CTA #0 (6221,0), 7 CTAs running
GPGPU-Sim uArch: core:  7, cta: 0 initialized @(6222,0)
GPGPU-Sim uArch: Shader 8 finished CTA #0 (6239,0), 7 CTAs running
GPGPU-Sim uArch: core:  8, cta: 0 initialized @(6240,0)
GPGPU-Sim uArch: Shader 2 finished CTA #0 (6240,0), 7 CTAs running
GPGPU-Sim uArch: core:  2, cta: 0 initialized @(6241,0)
GPGPU-Sim uArch: Shader 9 finished CTA #0 (6246,0), 7 CTAs running
GPGPU-Sim uArch: core:  9, cta: 0 initialized @(6247,0)
GPGPU-Sim uArch: Shader 1 finished CTA #0 (6252,0), 7 CTAs running
GPGPU-Sim uArch: core:  1, cta: 0 initialized @(6253,0)
GPGPU-Sim uArch: Shader 4 finished CTA #0 (6274,0), 7 CTAs running
GPGPU-Sim uArch: core:  4, cta: 0 initialized @(6275,0)
GPGPU-Sim uArch: Shader 3 finished CTA #0 (6296,0), 7 CTAs running
GPGPU-Sim uArch: core:  3, cta: 0 initialized @(6297,0)
GPGPU-Sim uArch: Shader 11 finished CTA #0 (6302,0), 7 CTAs running
GPGPU-Sim uArch: core: 11, cta: 0 initialized @(6303,0)
GPGPU-Sim PTX: 2200000 instructions simulated : ctaid=(0,4,0) tid=(6,11,0)
GPGPU-Sim uArch: cycles simulated: 6500  inst.: 2209809 (ipc=340.0) sim_rate=84992 (inst/sec) elapsed = 0:0:00:26 / Tue May 12 19:28:53 2015
GPGPU-Sim PTX: 2300000 instructions simulated : ctaid=(3,3,0) tid=(7,5,0)
GPGPU-Sim PTX: 2400000 instructions simulated : ctaid=(4,5,0) tid=(6,0,0)
GPGPU-Sim uArch: cycles simulated: 7000  inst.: 2419195 (ipc=345.6) sim_rate=83420 (inst/sec) elapsed = 0:0:00:29 / Tue May 12 19:28:56 2015
GPGPU-Sim PTX: 2500000 instructions simulated : ctaid=(4,6,0) tid=(4,8,0)
GPGPU-Sim PTX: 2600000 instructions simulated : ctaid=(0,5,0) tid=(1,5,0)
GPGPU-Sim uArch: cycles simulated: 7500  inst.: 2622638 (ipc=349.7) sim_rate=84601 (inst/sec) elapsed = 0:0:00:31 / Tue May 12 19:28:58 2015
GPGPU-Sim PTX: 2700000 instructions simulated : ctaid=(4,5,0) tid=(4,0,0)
GPGPU-Sim PTX: 2800000 instructions simulated : ctaid=(1,4,0) tid=(1,10,0)
GPGPU-Sim uArch: cycles simulated: 8000  inst.: 2827889 (ipc=353.5) sim_rate=85693 (inst/sec) elapsed = 0:0:00:33 / Tue May 12 19:29:00 2015
GPGPU-Sim PTX: 2900000 instructions simulated : ctaid=(2,6,0) tid=(12,0,0)
GPGPU-Sim uArch: Shader 2 finished CTA #1 (8290,0), 7 CTAs running
GPGPU-Sim uArch: core:  2, cta: 1 initialized @(8291,0)
GPGPU-Sim uArch: Shader 1 finished CTA #1 (8339,0), 7 CTAs running
GPGPU-Sim uArch: core:  1, cta: 1 initialized @(8340,0)
GPGPU-Sim PTX: 3000000 instructions simulated : ctaid=(2,6,0) tid=(7,4,0)
GPGPU-Sim uArch: Shader 3 finished CTA #1 (8473,0), 7 CTAs running
GPGPU-Sim uArch: core:  3, cta: 1 initialized @(8474,0)
GPGPU-Sim uArch: cycles simulated: 8500  inst.: 3022533 (ipc=355.6) sim_rate=86358 (inst/sec) elapsed = 0:0:00:35 / Tue May 12 19:29:02 2015
GPGPU-Sim PTX: 3100000 instructions simulated : ctaid=(4,7,0) tid=(9,9,0)
GPGPU-Sim uArch: Shader 12 finished CTA #1 (8782,0), 7 CTAs running
GPGPU-Sim uArch: core: 12, cta: 1 initialized @(8783,0)
GPGPU-Sim uArch: Shader 10 finished CTA #1 (8788,0), 7 CTAs running
GPGPU-Sim uArch: core: 10, cta: 1 initialized @(8789,0)
GPGPU-Sim uArch: Shader 11 finished CTA #1 (8793,0), 7 CTAs running
GPGPU-Sim uArch: core: 11, cta: 1 initialized @(8794,0)
GPGPU-Sim uArch: Shader 0 finished CTA #1 (8815,0), 7 CTAs running
GPGPU-Sim uArch: core:  0, cta: 1 initialized @(8816,0)
GPGPU-Sim uArch: Shader 14 finished CTA #1 (8898,0), 7 CTAs running
GPGPU-Sim uArch: core: 14, cta: 1 initialized @(8899,0)
GPGPU-Sim uArch: Shader 6 finished CTA #1 (8918,0), 7 CTAs running
GPGPU-Sim uArch: core:  6, cta: 1 initialized @(8919,0)
GPGPU-Sim uArch: Shader 7 finished CTA #1 (8930,0), 7 CTAs running
GPGPU-Sim uArch: core:  7, cta: 1 initialized @(8931,0)
GPGPU-Sim PTX: 3200000 instructions simulated : ctaid=(3,8,0) tid=(8,2,0)
GPGPU-Sim uArch: Shader 5 finished CTA #1 (8942,0), 7 CTAs running
GPGPU-Sim uArch: core:  5, cta: 1 initialized @(8943,0)
GPGPU-Sim uArch: Shader 13 finished CTA #1 (8958,0), 7 CTAs running
GPGPU-Sim uArch: core: 13, cta: 1 initialized @(8959,0)
GPGPU-Sim uArch: Shader 9 finished CTA #1 (8962,0), 7 CTAs running
GPGPU-Sim uArch: core:  9, cta: 1 initialized @(8963,0)
GPGPU-Sim uArch: Shader 4 finished CTA #1 (8967,0), 7 CTAs running
GPGPU-Sim uArch: core:  4, cta: 1 initialized @(8968,0)
GPGPU-Sim uArch: cycles simulated: 9000  inst.: 3214198 (ipc=357.1) sim_rate=86870 (inst/sec) elapsed = 0:0:00:37 / Tue May 12 19:29:04 2015
GPGPU-Sim uArch: Shader 8 finished CTA #1 (9040,0), 7 CTAs running
GPGPU-Sim uArch: core:  8, cta: 1 initialized @(9041,0)
GPGPU-Sim PTX: 3300000 instructions simulated : ctaid=(3,5,0) tid=(7,12,0)
GPGPU-Sim PTX: 3400000 instructions simulated : ctaid=(1,5,0) tid=(3,6,0)
GPGPU-Sim uArch: cycles simulated: 9500  inst.: 3415547 (ipc=359.5) sim_rate=87578 (inst/sec) elapsed = 0:0:00:39 / Tue May 12 19:29:06 2015
GPGPU-Sim PTX: 3500000 instructions simulated : ctaid=(2,8,0) tid=(8,6,0)
GPGPU-Sim PTX: 3600000 instructions simulated : ctaid=(1,8,0) tid=(1,10,0)
GPGPU-Sim uArch: cycles simulated: 10000  inst.: 3614639 (ipc=361.5) sim_rate=88161 (inst/sec) elapsed = 0:0:00:41 / Tue May 12 19:29:08 2015
GPGPU-Sim PTX: 3700000 instructions simulated : ctaid=(0,5,0) tid=(11,12,0)
GPGPU-Sim PTX: 3800000 instructions simulated : ctaid=(1,7,0) tid=(0,12,0)
GPGPU-Sim uArch: cycles simulated: 10500  inst.: 3817362 (ipc=363.6) sim_rate=88775 (inst/sec) elapsed = 0:0:00:43 / Tue May 12 19:29:10 2015
GPGPU-Sim PTX: 3900000 instructions simulated : ctaid=(0,6,0) tid=(3,12,0)
GPGPU-Sim uArch: Shader 12 finished CTA #2 (10887,0), 7 CTAs running
GPGPU-Sim uArch: core: 12, cta: 2 initialized @(10888,0)
GPGPU-Sim uArch: Shader 8 finished CTA #2 (10912,0), 7 CTAs running
GPGPU-Sim uArch: core:  8, cta: 2 initialized @(10913,0)
GPGPU-Sim PTX: 4000000 instructions simulated : ctaid=(3,5,0) tid=(8,12,0)
GPGPU-Sim uArch: Shader 9 finished CTA #2 (10975,0), 7 CTAs running
GPGPU-Sim uArch: core:  9, cta: 2 initialized @(10976,0)
GPGPU-Sim uArch: cycles simulated: 11000  inst.: 4010581 (ipc=364.6) sim_rate=89124 (inst/sec) elapsed = 0:0:00:45 / Tue May 12 19:29:12 2015
GPGPU-Sim uArch: Shader 5 finished CTA #2 (11013,0), 7 CTAs running
GPGPU-Sim uArch: core:  5, cta: 2 initialized @(11014,0)
GPGPU-Sim uArch: Shader 1 finished CTA #2 (11021,0), 7 CTAs running
GPGPU-Sim uArch: core:  1, cta: 2 initialized @(11022,0)
GPGPU-Sim uArch: Shader 11 finished CTA #2 (11028,0), 7 CTAs running
GPGPU-Sim uArch: core: 11, cta: 2 initialized @(11029,0)
GPGPU-Sim uArch: Shader 3 finished CTA #2 (11105,0), 7 CTAs running
GPGPU-Sim uArch: core:  3, cta: 2 initialized @(11106,0)
GPGPU-Sim uArch: Shader 6 finished CTA #2 (11108,0), 7 CTAs running
GPGPU-Sim uArch: core:  6, cta: 2 initialized @(11109,0)
GPGPU-Sim uArch: Shader 4 finished CTA #2 (11111,0), 7 CTAs running
GPGPU-Sim uArch: core:  4, cta: 2 initialized @(11112,0)
GPGPU-Sim uArch: Shader 2 finished CTA #2 (11126,0), 7 CTAs running
GPGPU-Sim uArch: core:  2, cta: 2 initialized @(11127,0)
GPGPU-Sim uArch: Shader 7 finished CTA #2 (11128,0), 7 CTAs running
GPGPU-Sim uArch: core:  7, cta: 2 initialized @(11129,0)
GPGPU-Sim uArch: Shader 10 finished CTA #2 (11130,0), 7 CTAs running
GPGPU-Sim uArch: core: 10, cta: 2 initialized @(11131,0)
GPGPU-Sim PTX: 4100000 instructions simulated : ctaid=(5,7,0) tid=(12,3,0)
GPGPU-Sim uArch: Shader 14 finished CTA #2 (11424,0), 7 CTAs running
GPGPU-Sim uArch: core: 14, cta: 2 initialized @(11425,0)
GPGPU-Sim PTX: 4200000 instructions simulated : ctaid=(5,9,0) tid=(0,12,0)
GPGPU-Sim uArch: cycles simulated: 11500  inst.: 4213512 (ipc=366.4) sim_rate=89649 (inst/sec) elapsed = 0:0:00:47 / Tue May 12 19:29:14 2015
GPGPU-Sim uArch: Shader 13 finished CTA #2 (11644,0), 7 CTAs running
GPGPU-Sim uArch: core: 13, cta: 2 initialized @(11645,0)
GPGPU-Sim uArch: Shader 0 finished CTA #2 (11661,0), 7 CTAs running
GPGPU-Sim uArch: core:  0, cta: 2 initialized @(11662,0)
GPGPU-Sim PTX: 4300000 instructions simulated : ctaid=(3,10,0) tid=(12,11,0)
GPGPU-Sim PTX: 4400000 instructions simulated : ctaid=(0,9,0) tid=(10,12,0)
GPGPU-Sim uArch: cycles simulated: 12000  inst.: 4415526 (ipc=368.0) sim_rate=91990 (inst/sec) elapsed = 0:0:00:48 / Tue May 12 19:29:15 2015
GPGPU-Sim PTX: 4500000 instructions simulated : ctaid=(3,11,0) tid=(6,2,0)
GPGPU-Sim PTX: 4600000 instructions simulated : ctaid=(0,12,0) tid=(12,0,0)
GPGPU-Sim uArch: cycles simulated: 12500  inst.: 4617444 (ipc=369.4) sim_rate=92348 (inst/sec) elapsed = 0:0:00:50 / Tue May 12 19:29:17 2015
GPGPU-Sim PTX: 4700000 instructions simulated : ctaid=(5,11,0) tid=(8,9,0)
GPGPU-Sim PTX: 4800000 instructions simulated : ctaid=(4,8,0) tid=(8,11,0)
GPGPU-Sim uArch: cycles simulated: 13000  inst.: 4814516 (ipc=370.3) sim_rate=92586 (inst/sec) elapsed = 0:0:00:52 / Tue May 12 19:29:19 2015
GPGPU-Sim PTX: 4900000 instructions simulated : ctaid=(1,11,0) tid=(1,0,0)
GPGPU-Sim uArch: Shader 11 finished CTA #3 (13344,0), 7 CTAs running
GPGPU-Sim uArch: core: 11, cta: 3 initialized @(13345,0)
GPGPU-Sim uArch: Shader 13 finished CTA #3 (13368,0), 7 CTAs running
GPGPU-Sim uArch: core: 13, cta: 3 initialized @(13369,0)
GPGPU-Sim uArch: Shader 10 finished CTA #3 (13394,0), 7 CTAs running
GPGPU-Sim uArch: core: 10, cta: 3 initialized @(13395,0)
GPGPU-Sim PTX: 5000000 instructions simulated : ctaid=(0,13,0) tid=(9,12,0)
GPGPU-Sim uArch: Shader 0 finished CTA #3 (13441,0), 7 CTAs running
GPGPU-Sim uArch: Shader 14 finished CTA #3 (13445,0), 7 CTAs running
GPGPU-Sim uArch: Shader 4 finished CTA #3 (13455,0), 7 CTAs running
GPGPU-Sim uArch: Shader 6 finished CTA #3 (13480,0), 7 CTAs running
GPGPU-Sim uArch: Shader 3 finished CTA #3 (13488,0), 7 CTAs running
GPGPU-Sim uArch: cycles simulated: 13500  inst.: 5011966 (ipc=371.3) sim_rate=92814 (inst/sec) elapsed = 0:0:00:54 / Tue May 12 19:29:21 2015
GPGPU-Sim uArch: Shader 7 finished CTA #3 (13501,0), 7 CTAs running
GPGPU-Sim uArch: Shader 9 finished CTA #3 (13508,0), 7 CTAs running
GPGPU-Sim uArch: Shader 12 finished CTA #3 (13509,0), 7 CTAs running
GPGPU-Sim uArch: Shader 5 finished CTA #3 (13526,0), 7 CTAs running
GPGPU-Sim uArch: Shader 8 finished CTA #3 (13600,0), 7 CTAs running
GPGPU-Sim uArch: Shader 2 finished CTA #3 (13657,0), 7 CTAs running
GPGPU-Sim PTX: 5100000 instructions simulated : ctaid=(0,13,0) tid=(7,1,0)
GPGPU-Sim uArch: Shader 1 finished CTA #3 (13783,0), 7 CTAs running
GPGPU-Sim PTX: 5200000 instructions simulated : ctaid=(5,10,0) tid=(9,5,0)
GPGPU-Sim uArch: cycles simulated: 14000  inst.: 5215472 (ipc=372.5) sim_rate=93133 (inst/sec) elapsed = 0:0:00:56 / Tue May 12 19:29:23 2015
GPGPU-Sim PTX: 5300000 instructions simulated : ctaid=(2,10,0) tid=(8,8,0)
GPGPU-Sim PTX: 5400000 instructions simulated : ctaid=(3,12,0) tid=(11,1,0)
GPGPU-Sim uArch: cycles simulated: 14500  inst.: 5421590 (ipc=373.9) sim_rate=93475 (inst/sec) elapsed = 0:0:00:58 / Tue May 12 19:29:25 2015
GPGPU-Sim PTX: 5500000 instructions simulated : ctaid=(2,13,0) tid=(5,8,0)
GPGPU-Sim PTX: 5600000 instructions simulated : ctaid=(3,16,0) tid=(4,6,0)
GPGPU-Sim uArch: cycles simulated: 15000  inst.: 5628471 (ipc=375.2) sim_rate=93807 (inst/sec) elapsed = 0:0:01:00 / Tue May 12 19:29:27 2015
GPGPU-Sim PTX: 5700000 instructions simulated : ctaid=(1,13,0) tid=(1,12,0)
GPGPU-Sim PTX: 5800000 instructions simulated : ctaid=(0,13,0) tid=(5,4,0)
GPGPU-Sim uArch: cycles simulated: 15500  inst.: 5830283 (ipc=376.1) sim_rate=92544 (inst/sec) elapsed = 0:0:01:03 / Tue May 12 19:29:30 2015
GPGPU-Sim PTX: 5900000 instructions simulated : ctaid=(4,13,0) tid=(5,6,0)
GPGPU-Sim PTX: 6000000 instructions simulated : ctaid=(2,14,0) tid=(9,7,0)
GPGPU-Sim uArch: cycles simulated: 16000  inst.: 6017026 (ipc=376.1) sim_rate=92569 (inst/sec) elapsed = 0:0:01:05 / Tue May 12 19:29:32 2015
GPGPU-Sim uArch: Shader 14 finished CTA #4 (16145,0), 6 CTAs running
GPGPU-Sim PTX: 6100000 instructions simulated : ctaid=(0,15,0) tid=(5,2,0)
GPGPU-Sim uArch: Shader 3 finished CTA #4 (16205,0), 6 CTAs running
GPGPU-Sim uArch: Shader 7 finished CTA #4 (16208,0), 6 CTAs running
GPGPU-Sim uArch: Shader 10 finished CTA #4 (16213,0), 7 CTAs running
GPGPU-Sim uArch: Shader 8 finished CTA #4 (16216,0), 6 CTAs running
GPGPU-Sim uArch: Shader 13 finished CTA #4 (16216,0), 7 CTAs running
GPGPU-Sim uArch: Shader 1 finished CTA #4 (16218,0), 6 CTAs running
GPGPU-Sim uArch: Shader 4 finished CTA #4 (16221,0), 6 CTAs running
GPGPU-Sim uArch: Shader 6 finished CTA #4 (16221,0), 6 CTAs running
GPGPU-Sim uArch: Shader 0 finished CTA #4 (16235,0), 6 CTAs running
GPGPU-Sim uArch: Shader 2 finished CTA #4 (16239,0), 6 CTAs running
GPGPU-Sim uArch: Shader 12 finished CTA #4 (16240,0), 6 CTAs running
GPGPU-Sim uArch: Shader 9 finished CTA #4 (16247,0), 6 CTAs running
GPGPU-Sim uArch: Shader 5 finished CTA #4 (16324,0), 6 CTAs running
GPGPU-Sim uArch: Shader 11 finished CTA #4 (16353,0), 7 CTAs running
GPGPU-Sim PTX: 6200000 instructions simulated : ctaid=(5,16,0) tid=(6,4,0)
GPGPU-Sim uArch: cycles simulated: 16500  inst.: 6217484 (ipc=376.8) sim_rate=92798 (inst/sec) elapsed = 0:0:01:07 / Tue May 12 19:29:34 2015
GPGPU-Sim PTX: 6300000 instructions simulated : ctaid=(3,12,0) tid=(4,5,0)
GPGPU-Sim PTX: 6400000 instructions simulated : ctaid=(5,14,0) tid=(8,6,0)
GPGPU-Sim uArch: cycles simulated: 17000  inst.: 6416964 (ipc=377.5) sim_rate=92999 (inst/sec) elapsed = 0:0:01:09 / Tue May 12 19:29:36 2015
GPGPU-Sim PTX: 6500000 instructions simulated : ctaid=(0,16,0) tid=(10,11,0)
GPGPU-Sim PTX: 6600000 instructions simulated : ctaid=(1,17,0) tid=(8,3,0)
GPGPU-Sim uArch: cycles simulated: 17500  inst.: 6620126 (ipc=378.3) sim_rate=93241 (inst/sec) elapsed = 0:0:01:11 / Tue May 12 19:29:38 2015
GPGPU-Sim PTX: 6700000 instructions simulated : ctaid=(4,15,0) tid=(2,8,0)
GPGPU-Sim PTX: 6800000 instructions simulated : ctaid=(5,15,0) tid=(5,12,0)
GPGPU-Sim uArch: cycles simulated: 18000  inst.: 6814817 (ipc=378.6) sim_rate=94650 (inst/sec) elapsed = 0:0:01:12 / Tue May 12 19:29:39 2015
GPGPU-Sim PTX: 6900000 instructions simulated : ctaid=(2,15,0) tid=(7,12,0)
GPGPU-Sim uArch: Shader 6 finished CTA #5 (18188,0), 5 CTAs running
GPGPU-Sim uArch: Shader 5 finished CTA #5 (18204,0), 5 CTAs running
GPGPU-Sim uArch: Shader 2 finished CTA #5 (18209,0), 5 CTAs running
GPGPU-Sim uArch: Shader 8 finished CTA #5 (18307,0), 5 CTAs running
GPGPU-Sim uArch: Shader 9 finished CTA #5 (18309,0), 5 CTAs running
GPGPU-Sim uArch: Shader 1 finished CTA #5 (18354,0), 5 CTAs running
GPGPU-Sim uArch: Shader 3 finished CTA #5 (18362,0), 5 CTAs running
GPGPU-Sim PTX: 7000000 instructions simulated : ctaid=(4,18,0) tid=(4,0,0)
GPGPU-Sim uArch: Shader 4 finished CTA #5 (18416,0), 5 CTAs running
GPGPU-Sim uArch: Shader 7 finished CTA #5 (18426,0), 5 CTAs running
GPGPU-Sim uArch: cycles simulated: 18500  inst.: 7010531 (ipc=378.9) sim_rate=94736 (inst/sec) elapsed = 0:0:01:14 / Tue May 12 19:29:41 2015
GPGPU-Sim PTX: 7100000 instructions simulated : ctaid=(1,15,0) tid=(3,9,0)
GPGPU-Sim uArch: Shader 12 finished CTA #5 (18663,0), 5 CTAs running
GPGPU-Sim uArch: Shader 0 finished CTA #5 (18670,0), 5 CTAs running
GPGPU-Sim uArch: Shader 13 finished CTA #5 (18682,0), 6 CTAs running
GPGPU-Sim uArch: Shader 10 finished CTA #5 (18683,0), 6 CTAs running
GPGPU-Sim uArch: Shader 11 finished CTA #5 (18691,0), 6 CTAs running
GPGPU-Sim uArch: Shader 14 finished CTA #5 (18831,0), 5 CTAs running
GPGPU-Sim PTX: 7200000 instructions simulated : ctaid=(1,22,0) tid=(10,0,0)
GPGPU-Sim uArch: cycles simulated: 19000  inst.: 7218723 (ipc=379.9) sim_rate=94983 (inst/sec) elapsed = 0:0:01:16 / Tue May 12 19:29:43 2015
GPGPU-Sim PTX: 7300000 instructions simulated : ctaid=(5,16,0) tid=(11,12,0)
GPGPU-Sim PTX: 7400000 instructions simulated : ctaid=(2,18,0) tid=(10,3,0)
GPGPU-Sim uArch: cycles simulated: 19500  inst.: 7420274 (ipc=380.5) sim_rate=95131 (inst/sec) elapsed = 0:0:01:18 / Tue May 12 19:29:45 2015
GPGPU-Sim PTX: 7500000 instructions simulated : ctaid=(1,19,0) tid=(10,3,0)
GPGPU-Sim PTX: 7600000 instructions simulated : ctaid=(3,18,0) tid=(6,6,0)
GPGPU-Sim uArch: cycles simulated: 20000  inst.: 7622585 (ipc=381.1) sim_rate=96488 (inst/sec) elapsed = 0:0:01:19 / Tue May 12 19:29:46 2015
GPGPU-Sim PTX: 7700000 instructions simulated : ctaid=(3,16,0) tid=(10,11,0)
GPGPU-Sim PTX: 7800000 instructions simulated : ctaid=(3,16,0) tid=(11,12,0)
GPGPU-Sim uArch: cycles simulated: 20500  inst.: 7826798 (ipc=381.8) sim_rate=96627 (inst/sec) elapsed = 0:0:01:21 / Tue May 12 19:29:48 2015
GPGPU-Sim PTX: 7900000 instructions simulated : ctaid=(3,18,0) tid=(0,2,0)
GPGPU-Sim PTX: 8000000 instructions simulated : ctaid=(3,19,0) tid=(3,4,0)
GPGPU-Sim uArch: cycles simulated: 21000  inst.: 8017969 (ipc=381.8) sim_rate=96602 (inst/sec) elapsed = 0:0:01:23 / Tue May 12 19:29:50 2015
GPGPU-Sim uArch: Shader 8 finished CTA #6 (21002,0), 4 CTAs running
GPGPU-Sim uArch: Shader 2 finished CTA #6 (21030,0), 4 CTAs running
GPGPU-Sim uArch: Shader 9 finished CTA #6 (21034,0), 4 CTAs running
GPGPU-Sim uArch: Shader 11 finished CTA #6 (21036,0), 5 CTAs running
GPGPU-Sim uArch: Shader 4 finished CTA #6 (21047,0), 4 CTAs running
GPGPU-Sim uArch: Shader 6 finished CTA #6 (21047,0), 4 CTAs running
GPGPU-Sim uArch: Shader 3 finished CTA #6 (21052,0), 4 CTAs running
GPGPU-Sim uArch: Shader 12 finished CTA #6 (21055,0), 4 CTAs running
GPGPU-Sim uArch: Shader 1 finished CTA #6 (21060,0), 4 CTAs running
GPGPU-Sim PTX: 8100000 instructions simulated : ctaid=(0,22,0) tid=(8,4,0)
GPGPU-Sim uArch: Shader 5 finished CTA #6 (21149,0), 4 CTAs running
GPGPU-Sim uArch: Shader 7 finished CTA #6 (21159,0), 4 CTAs running
GPGPU-Sim uArch: Shader 10 finished CTA #6 (21171,0), 5 CTAs running
GPGPU-Sim PTX: 8200000 instructions simulated : ctaid=(3,17,0) tid=(8,10,0)
GPGPU-Sim uArch: cycles simulated: 21500  inst.: 8219706 (ipc=382.3) sim_rate=96702 (inst/sec) elapsed = 0:0:01:25 / Tue May 12 19:29:52 2015
GPGPU-Sim PTX: 8300000 instructions simulated : ctaid=(2,20,0) tid=(8,7,0)
GPGPU-Sim uArch: Shader 13 finished CTA #6 (21755,0), 5 CTAs running
GPGPU-Sim uArch: Shader 14 finished CTA #6 (21777,0), 4 CTAs running
GPGPU-Sim uArch: Shader 0 finished CTA #6 (21782,0), 4 CTAs running
GPGPU-Sim PTX: 8400000 instructions simulated : ctaid=(1,20,0) tid=(3,0,0)
GPGPU-Sim uArch: cycles simulated: 22000  inst.: 8423523 (ipc=382.9) sim_rate=96822 (inst/sec) elapsed = 0:0:01:27 / Tue May 12 19:29:54 2015
GPGPU-Sim PTX: 8500000 instructions simulated : ctaid=(0,19,0) tid=(10,9,0)
GPGPU-Sim PTX: 8600000 instructions simulated : ctaid=(4,22,0) tid=(8,1,0)
GPGPU-Sim uArch: cycles simulated: 22500  inst.: 8627311 (ipc=383.4) sim_rate=96936 (inst/sec) elapsed = 0:0:01:29 / Tue May 12 19:29:56 2015
GPGPU-Sim PTX: 8700000 instructions simulated : ctaid=(3,21,0) tid=(2,5,0)
GPGPU-Sim PTX: 8800000 instructions simulated : ctaid=(4,21,0) tid=(12,7,0)
GPGPU-Sim uArch: cycles simulated: 23000  inst.: 8829368 (ipc=383.9) sim_rate=97026 (inst/sec) elapsed = 0:0:01:31 / Tue May 12 19:29:58 2015
GPGPU-Sim PTX: 8900000 instructions simulated : ctaid=(0,20,0) tid=(9,0,0)
GPGPU-Sim PTX: 9000000 instructions simulated : ctaid=(5,21,0) tid=(3,7,0)
GPGPU-Sim uArch: cycles simulated: 23500  inst.: 9023152 (ipc=384.0) sim_rate=97023 (inst/sec) elapsed = 0:0:01:33 / Tue May 12 19:30:00 2015
GPGPU-Sim PTX: 9100000 instructions simulated : ctaid=(0,21,0) tid=(0,1,0)
GPGPU-Sim uArch: Shader 14 finished CTA #7 (23621,0), 3 CTAs running
GPGPU-Sim uArch: Shader 11 finished CTA #7 (23634,0), 4 CTAs running
GPGPU-Sim uArch: Shader 0 finished CTA #7 (23640,0), 3 CTAs running
GPGPU-Sim uArch: Shader 12 finished CTA #7 (23661,0), 3 CTAs running
GPGPU-Sim uArch: Shader 10 finished CTA #7 (23673,0), 4 CTAs running
GPGPU-Sim uArch: Shader 5 finished CTA #7 (23691,0), 3 CTAs running
GPGPU-Sim uArch: Shader 6 finished CTA #7 (23710,0), 3 CTAs running
GPGPU-Sim uArch: Shader 4 finished CTA #7 (23713,0), 3 CTAs running
GPGPU-Sim uArch: Shader 13 finished CTA #7 (23779,0), 4 CTAs running
GPGPU-Sim uArch: Shader 2 finished CTA #7 (23841,0), 3 CTAs running
GPGPU-Sim PTX: 9200000 instructions simulated : ctaid=(1,22,0) tid=(6,9,0)
GPGPU-Sim uArch: Shader 9 finished CTA #7 (23847,0), 3 CTAs running
GPGPU-Sim uArch: Shader 8 finished CTA #7 (23848,0), 3 CTAs running
GPGPU-Sim uArch: Shader 7 finished CTA #7 (23865,0), 3 CTAs running
GPGPU-Sim uArch: Shader 3 finished CTA #7 (23872,0), 3 CTAs running
GPGPU-Sim uArch: Shader 1 finished CTA #7 (23883,0), 3 CTAs running
GPGPU-Sim uArch: cycles simulated: 24000  inst.: 9228706 (ipc=384.5) sim_rate=97144 (inst/sec) elapsed = 0:0:01:35 / Tue May 12 19:30:02 2015
GPGPU-Sim PTX: 9300000 instructions simulated : ctaid=(0,21,0) tid=(0,10,0)
GPGPU-Sim PTX: 9400000 instructions simulated : ctaid=(2,24,0) tid=(1,2,0)
GPGPU-Sim uArch: cycles simulated: 24500  inst.: 9430109 (ipc=384.9) sim_rate=98230 (inst/sec) elapsed = 0:0:01:36 / Tue May 12 19:30:03 2015
GPGPU-Sim PTX: 9500000 instructions simulated : ctaid=(2,21,0) tid=(7,11,0)
GPGPU-Sim PTX: 9600000 instructions simulated : ctaid=(5,24,0) tid=(4,1,0)
GPGPU-Sim uArch: cycles simulated: 25000  inst.: 9629875 (ipc=385.2) sim_rate=98264 (inst/sec) elapsed = 0:0:01:38 / Tue May 12 19:30:05 2015
GPGPU-Sim PTX: 9700000 instructions simulated : ctaid=(4,21,0) tid=(0,8,0)
GPGPU-Sim PTX: 9800000 instructions simulated : ctaid=(1,24,0) tid=(2,6,0)
GPGPU-Sim uArch: cycles simulated: 25500  inst.: 9834802 (ipc=385.7) sim_rate=98348 (inst/sec) elapsed = 0:0:01:40 / Tue May 12 19:30:07 2015
GPGPU-Sim PTX: 9900000 instructions simulated : ctaid=(1,24,0) tid=(2,9,0)
GPGPU-Sim PTX: 10000000 instructions simulated : ctaid=(5,22,0) tid=(2,1,0)
GPGPU-Sim uArch: cycles simulated: 26000  inst.: 10026082 (ipc=385.6) sim_rate=98294 (inst/sec) elapsed = 0:0:01:42 / Tue May 12 19:30:09 2015
GPGPU-Sim uArch: Shader 11 finished CTA #0 (26079,0), 3 CTAs running
GPGPU-Sim PTX: 10100000 instructions simulated : ctaid=(0,24,0) tid=(1,12,0)
GPGPU-Sim uArch: Shader 5 finished CTA #0 (26129,0), 2 CTAs running
GPGPU-Sim uArch: Shader 14 finished CTA #0 (26221,0), 2 CTAs running
GPGPU-Sim uArch: Shader 3 finished CTA #0 (26240,0), 2 CTAs running
GPGPU-Sim uArch: Shader 4 finished CTA #0 (26242,0), 2 CTAs running
GPGPU-Sim uArch: Shader 12 finished CTA #0 (26249,0), 2 CTAs running
GPGPU-Sim uArch: Shader 0 finished CTA #0 (26265,0), 2 CTAs running
GPGPU-Sim uArch: Shader 10 finished CTA #0 (26269,0), 3 CTAs running
GPGPU-Sim uArch: Shader 2 finished CTA #0 (26272,0), 2 CTAs running
GPGPU-Sim uArch: Shader 1 finished CTA #0 (26289,0), 2 CTAs running
GPGPU-Sim uArch: Shader 13 finished CTA #0 (26295,0), 3 CTAs running
GPGPU-Sim PTX: 10200000 instructions simulated : ctaid=(4,24,0) tid=(5,1,0)
GPGPU-Sim uArch: Shader 8 finished CTA #0 (26430,0), 2 CTAs running
GPGPU-Sim uArch: Shader 7 finished CTA #0 (26460,0), 2 CTAs running
GPGPU-Sim uArch: Shader 6 finished CTA #0 (26469,0), 2 CTAs running
GPGPU-Sim uArch: cycles simulated: 26500  inst.: 10227541 (ipc=385.9) sim_rate=99296 (inst/sec) elapsed = 0:0:01:43 / Tue May 12 19:30:10 2015
GPGPU-Sim uArch: Shader 9 finished CTA #0 (26566,0), 2 CTAs running
GPGPU-Sim PTX: 10300000 instructions simulated : ctaid=(1,25,0) tid=(10,1,0)
GPGPU-Sim PTX: 10400000 instructions simulated : ctaid=(5,22,0) tid=(5,9,0)
GPGPU-Sim uArch: cycles simulated: 27000  inst.: 10429264 (ipc=386.3) sim_rate=99326 (inst/sec) elapsed = 0:0:01:45 / Tue May 12 19:30:12 2015
GPGPU-Sim PTX: 10500000 instructions simulated : ctaid=(5,24,0) tid=(11,10,0)
GPGPU-Sim PTX: 10600000 instructions simulated : ctaid=(5,24,0) tid=(3,11,0)
GPGPU-Sim uArch: cycles simulated: 27500  inst.: 10621500 (ipc=386.2) sim_rate=99266 (inst/sec) elapsed = 0:0:01:47 / Tue May 12 19:30:14 2015
GPGPU-Sim PTX: 10700000 instructions simulated : ctaid=(4,26,0) tid=(4,12,0)
GPGPU-Sim PTX: 10800000 instructions simulated : ctaid=(0,26,0) tid=(5,0,0)
GPGPU-Sim uArch: cycles simulated: 28000  inst.: 10816462 (ipc=386.3) sim_rate=99233 (inst/sec) elapsed = 0:0:01:49 / Tue May 12 19:30:16 2015
GPGPU-Sim PTX: 10900000 instructions simulated : ctaid=(2,23,0) tid=(12,11,0)
GPGPU-Sim uArch: Shader 3 finished CTA #1 (28306,0), 1 CTAs running
GPGPU-Sim PTX: 11000000 instructions simulated : ctaid=(2,25,0) tid=(4,12,0)
GPGPU-Sim uArch: cycles simulated: 28500  inst.: 11000540 (ipc=386.0) sim_rate=100004 (inst/sec) elapsed = 0:0:01:50 / Tue May 12 19:30:17 2015
GPGPU-Sim uArch: Shader 2 finished CTA #1 (28597,0), 1 CTAs running
GPGPU-Sim PTX: 11100000 instructions simulated : ctaid=(3,26,0) tid=(11,2,0)
GPGPU-Sim uArch: Shader 6 finished CTA #1 (28705,0), 1 CTAs running
GPGPU-Sim uArch: Shader 1 finished CTA #1 (28718,0), 1 CTAs running
GPGPU-Sim uArch: Shader 0 finished CTA #1 (28743,0), 1 CTAs running
GPGPU-Sim uArch: Shader 10 finished CTA #1 (28744,0), 2 CTAs running
GPGPU-Sim uArch: Shader 11 finished CTA #1 (28753,0), 2 CTAs running
GPGPU-Sim uArch: Shader 5 finished CTA #1 (28857,0), 1 CTAs running
GPGPU-Sim uArch: Shader 12 finished CTA #1 (28875,0), 1 CTAs running
GPGPU-Sim uArch: Shader 14 finished CTA #1 (28881,0), 1 CTAs running
GPGPU-Sim uArch: Shader 8 finished CTA #1 (28934,0), 1 CTAs running
GPGPU-Sim PTX: 11200000 instructions simulated : ctaid=(1,27,0) tid=(12,10,0)
GPGPU-Sim uArch: cycles simulated: 29000  inst.: 11179293 (ipc=385.5) sim_rate=99815 (inst/sec) elapsed = 0:0:01:52 / Tue May 12 19:30:19 2015
GPGPU-Sim uArch: Shader 7 finished CTA #1 (29025,0), 1 CTAs running
GPGPU-Sim uArch: Shader 9 finished CTA #1 (29054,0), 1 CTAs running
GPGPU-Sim uArch: Shader 4 finished CTA #1 (29112,0), 1 CTAs running
GPGPU-Sim uArch: Shader 13 finished CTA #1 (29232,0), 2 CTAs running
GPGPU-Sim PTX: 11300000 instructions simulated : ctaid=(4,27,0) tid=(3,0,0)
GPGPU-Sim uArch: cycles simulated: 29500  inst.: 11328768 (ipc=384.0) sim_rate=100254 (inst/sec) elapsed = 0:0:01:53 / Tue May 12 19:30:20 2015
GPGPU-Sim PTX: 11400000 instructions simulated : ctaid=(3,26,0) tid=(0,8,0)
GPGPU-Sim uArch: cycles simulated: 30000  inst.: 11436527 (ipc=381.2) sim_rate=100320 (inst/sec) elapsed = 0:0:01:54 / Tue May 12 19:30:21 2015
GPGPU-Sim PTX: 11500000 instructions simulated : ctaid=(1,26,0) tid=(9,11,0)
GPGPU-Sim uArch: cycles simulated: 30500  inst.: 11515799 (ipc=377.6) sim_rate=100137 (inst/sec) elapsed = 0:0:01:55 / Tue May 12 19:30:22 2015
GPGPU-Sim PTX: 11600000 instructions simulated : ctaid=(2,26,0) tid=(10,12,0)
GPGPU-Sim uArch: cycles simulated: 31000  inst.: 11582114 (ipc=373.6) sim_rate=99845 (inst/sec) elapsed = 0:0:01:56 / Tue May 12 19:30:23 2015
GPGPU-Sim uArch: Shader 10 finished CTA #2 (31307,0), 1 CTAs running
GPGPU-Sim uArch: Shader 5 finished CTA #2 (31311,0), 0 CTAs running
GPGPU-Sim uArch: Shader 5 empty (release kernel 1 '_Z17executeFirstLayerPfS_S_').
GPGPU-Sim uArch: Shader 2 finished CTA #2 (31315,0), 0 CTAs running
GPGPU-Sim uArch: Shader 2 empty (release kernel 1 '_Z17executeFirstLayerPfS_S_').
GPGPU-Sim uArch: Shader 4 finished CTA #2 (31323,0), 0 CTAs running
GPGPU-Sim uArch: Shader 4 empty (release kernel 1 '_Z17executeFirstLayerPfS_S_').
GPGPU-Sim uArch: Shader 6 finished CTA #2 (31327,0), 0 CTAs running
GPGPU-Sim uArch: Shader 6 empty (release kernel 1 '_Z17executeFirstLayerPfS_S_').
GPGPU-Sim uArch: Shader 8 finished CTA #2 (31340,0), 0 CTAs running
GPGPU-Sim uArch: Shader 8 empty (release kernel 1 '_Z17executeFirstLayerPfS_S_').
GPGPU-Sim uArch: Shader 3 finished CTA #2 (31355,0), 0 CTAs running
GPGPU-Sim uArch: Shader 3 empty (release kernel 1 '_Z17executeFirstLayerPfS_S_').
GPGPU-Sim uArch: Shader 7 finished CTA #2 (31368,0), 0 CTAs running
GPGPU-Sim uArch: Shader 7 empty (release kernel 1 '_Z17executeFirstLayerPfS_S_').
GPGPU-Sim uArch: Shader 14 finished CTA #2 (31382,0), 0 CTAs running
GPGPU-Sim uArch: Shader 14 empty (release kernel 1 '_Z17executeFirstLayerPfS_S_').
GPGPU-Sim uArch: Shader 0 finished CTA #2 (31387,0), 0 CTAs running
GPGPU-Sim uArch: Shader 0 empty (release kernel 1 '_Z17executeFirstLayerPfS_S_').
GPGPU-Sim uArch: Shader 13 finished CTA #2 (31422,0), 1 CTAs running
GPGPU-Sim uArch: Shader 11 finished CTA #2 (31457,0), 1 CTAs running
GPGPU-Sim uArch: Shader 1 finished CTA #2 (31463,0), 0 CTAs running
GPGPU-Sim uArch: Shader 1 empty (release kernel 1 '_Z17executeFirstLayerPfS_S_').
GPGPU-Sim uArch: Shader 12 finished CTA #2 (31475,0), 0 CTAs running
GPGPU-Sim uArch: Shader 12 empty (release kernel 1 '_Z17executeFirstLayerPfS_S_').
GPGPU-Sim uArch: cycles simulated: 31500  inst.: 11621583 (ipc=368.9) sim_rate=99329 (inst/sec) elapsed = 0:0:01:57 / Tue May 12 19:30:24 2015
GPGPU-Sim uArch: Shader 9 finished CTA #2 (31530,0), 0 CTAs running
GPGPU-Sim uArch: Shader 9 empty (release kernel 1 '_Z17executeFirstLayerPfS_S_').
GPGPU-Sim PTX: 11700000 instructions simulated : ctaid=(3,27,0) tid=(3,11,0)
GPGPU-Sim uArch: cycles simulated: 33000  inst.: 11687134 (ipc=354.2) sim_rate=99043 (inst/sec) elapsed = 0:0:01:58 / Tue May 12 19:30:25 2015
GPGPU-Sim uArch: Shader 11 finished CTA #3 (33723,0), 0 CTAs running
GPGPU-Sim uArch: Shader 11 empty (release kernel 1 '_Z17executeFirstLayerPfS_S_').
GPGPU-Sim uArch: Shader 13 finished CTA #3 (33726,0), 0 CTAs running
GPGPU-Sim uArch: Shader 13 empty (release kernel 1 '_Z17executeFirstLayerPfS_S_').
GPGPU-Sim uArch: Shader 10 finished CTA #3 (33744,0), 0 CTAs running
GPGPU-Sim uArch: Shader 10 empty (release kernel 1 '_Z17executeFirstLayerPfS_S_').
GPGPU-Sim uArch: GPU detected kernel '_Z17executeFirstLayerPfS_S_' finished on shader 10.
kernel_name = _Z17executeFirstLayerPfS_S_ 
kernel_launch_uid = 1 
gpu_sim_cycle = 33745
gpu_sim_insn = 11694074
gpu_ipc =     346.5424
gpu_tot_sim_cycle = 33745
gpu_tot_sim_insn = 11694074
gpu_tot_ipc =     346.5424
gpu_tot_issued_cta = 0
gpu_stall_dramfull = 7935
gpu_stall_icnt2sh    = 14265
gpu_total_sim_rate=99102

========= Core cache stats =========
L1I_cache:
	L1I_total_cache_accesses = 245107
	L1I_total_cache_misses = 1227
	L1I_total_cache_miss_rate = 0.0050
	L1I_total_cache_pending_hits = 0
	L1I_total_cache_reservation_fails = 4140
L1D_cache:
	L1D_cache_core[0]: Access = 9396, Miss = 435, Miss_rate = 0.046, Pending_hits = 68, Reservation_fails = 1088
	L1D_cache_core[1]: Access = 9376, Miss = 429, Miss_rate = 0.046, Pending_hits = 66, Reservation_fails = 966
	L1D_cache_core[2]: Access = 9364, Miss = 431, Miss_rate = 0.046, Pending_hits = 70, Reservation_fails = 948
	L1D_cache_core[3]: Access = 9330, Miss = 410, Miss_rate = 0.044, Pending_hits = 63, Reservation_fails = 998
	L1D_cache_core[4]: Access = 9366, Miss = 438, Miss_rate = 0.047, Pending_hits = 66, Reservation_fails = 973
	L1D_cache_core[5]: Access = 9406, Miss = 426, Miss_rate = 0.045, Pending_hits = 72, Reservation_fails = 978
	L1D_cache_core[6]: Access = 9375, Miss = 430, Miss_rate = 0.046, Pending_hits = 64, Reservation_fails = 975
	L1D_cache_core[7]: Access = 9370, Miss = 435, Miss_rate = 0.046, Pending_hits = 63, Reservation_fails = 1034
	L1D_cache_core[8]: Access = 9394, Miss = 432, Miss_rate = 0.046, Pending_hits = 66, Reservation_fails = 1031
	L1D_cache_core[9]: Access = 9399, Miss = 440, Miss_rate = 0.047, Pending_hits = 67, Reservation_fails = 1112
	L1D_cache_core[10]: Access = 10202, Miss = 470, Miss_rate = 0.046, Pending_hits = 68, Reservation_fails = 1092
	L1D_cache_core[11]: Access = 10190, Miss = 468, Miss_rate = 0.046, Pending_hits = 83, Reservation_fails = 1029
	L1D_cache_core[12]: Access = 9358, Miss = 431, Miss_rate = 0.046, Pending_hits = 75, Reservation_fails = 1059
	L1D_cache_core[13]: Access = 10278, Miss = 452, Miss_rate = 0.044, Pending_hits = 63, Reservation_fails = 1033
	L1D_cache_core[14]: Access = 9398, Miss = 440, Miss_rate = 0.047, Pending_hits = 70, Reservation_fails = 1137
	L1D_total_cache_accesses = 143202
	L1D_total_cache_misses = 6567
	L1D_total_cache_miss_rate = 0.0459
	L1D_total_cache_pending_hits = 1024
	L1D_total_cache_reservation_fails = 15453
	L1D_cache_data_port_util = 0.284
	L1D_cache_fill_port_util = 0.010
L1C_cache:
	L1C_total_cache_accesses = 28224
	L1C_total_cache_misses = 1004
	L1C_total_cache_miss_rate = 0.0356
	L1C_total_cache_pending_hits = 0
	L1C_total_cache_reservation_fails = 2633
L1T_cache:
	L1T_total_cache_accesses = 0
	L1T_total_cache_misses = 0
	L1T_total_cache_pending_hits = 0
	L1T_total_cache_reservation_fails = 0

Total_core_cache_stats:
	Total_core_cache_stats_breakdown[GLOBAL_ACC_R][HIT] = 135611
	Total_core_cache_stats_breakdown[GLOBAL_ACC_R][HIT_RESERVED] = 1024
	Total_core_cache_stats_breakdown[GLOBAL_ACC_R][MISS] = 4707
	Total_core_cache_stats_breakdown[GLOBAL_ACC_R][RESERVATION_FAIL] = 15453
	Total_core_cache_stats_breakdown[CONST_ACC_R][HIT] = 27220
	Total_core_cache_stats_breakdown[CONST_ACC_R][MISS] = 1004
	Total_core_cache_stats_breakdown[CONST_ACC_R][RESERVATION_FAIL] = 2633
	Total_core_cache_stats_breakdown[GLOBAL_ACC_W][MISS] = 1860
	Total_core_cache_stats_breakdown[INST_ACC_R][HIT] = 243880
	Total_core_cache_stats_breakdown[INST_ACC_R][MISS] = 1227
	Total_core_cache_stats_breakdown[INST_ACC_R][RESERVATION_FAIL] = 4140
Shader 0 warp_id issue ditsribution:
warp_id:
0, 1, 2, 3, 4, 5, 6, 7, 8, 9, 10, 11, 12, 13, 14, 15, 16, 17, 18, 19, 20, 21, 22, 23, 24, 25, 26, 27, 28, 29, 30, 31, 32, 33, 34, 35, 36, 37, 38, 39, 40, 41, 42, 43, 44, 45, 46, 47, 
distro:
845, 874, 874, 874, 874, 845, 874, 874, 874, 874, 874, 816, 874, 874, 874, 874, 874, 845, 408, 437, 437, 437, 437, 437, 437, 437, 437, 437, 437, 437, 437, 437, 437, 437, 437, 408, 437, 437, 437, 437, 437, 437, 437, 437, 437, 437, 437, 408, 
gpgpu_n_tot_thrd_icount = 13976224
gpgpu_n_tot_w_icount = 436757
gpgpu_n_stall_shd_mem = 108872
gpgpu_n_mem_read_local = 0
gpgpu_n_mem_write_local = 0
gpgpu_n_mem_read_global = 4707
gpgpu_n_mem_write_global = 1860
gpgpu_n_mem_texture = 0
gpgpu_n_mem_const = 45
gpgpu_n_load_insn  = 1447992
gpgpu_n_store_insn = 28392
gpgpu_n_shmem_insn = 0
gpgpu_n_tex_insn = 0
gpgpu_n_const_mem_insn = 709800
gpgpu_n_param_mem_insn = 85176
gpgpu_n_shmem_bkconflict = 0
gpgpu_n_cache_bkconflict = 0
gpgpu_n_intrawarp_mshr_merge = 0
gpgpu_n_cmem_portconflict = 2633
gpgpu_stall_shd_mem[c_mem][bk_conf] = 2633
gpgpu_stall_shd_mem[c_mem][mshr_rc] = 0
gpgpu_stall_shd_mem[c_mem][icnt_rc] = 0
gpgpu_stall_shd_mem[c_mem][data_port_stall] = 0
gpgpu_stall_shd_mem[t_mem][mshr_rc] = 0
gpgpu_stall_shd_mem[t_mem][icnt_rc] = 0
gpgpu_stall_shd_mem[t_mem][data_port_stall] = 0
gpgpu_stall_shd_mem[s_mem][bk_conf] = 0
gpgpu_stall_shd_mem[gl_mem][bk_conf] = 0
gpgpu_stall_shd_mem[gl_mem][coal_stall] = 106239
gpgpu_stall_shd_mem[gl_mem][data_port_stall] = 0
gpgpu_stall_shd_mem[g_mem_ld][mshr_rc] = 0
gpgpu_stall_shd_mem[g_mem_ld][icnt_rc] = 0
gpgpu_stall_shd_mem[g_mem_ld][wb_icnt_rc] = 0
gpgpu_stall_shd_mem[g_mem_ld][wb_rsrv_fail] = 0
gpgpu_stall_shd_mem[g_mem_st][mshr_rc] = 0
gpgpu_stall_shd_mem[g_mem_st][icnt_rc] = 0
gpgpu_stall_shd_mem[g_mem_st][wb_icnt_rc] = 0
gpgpu_stall_shd_mem[g_mem_st][wb_rsrv_fail] = 0
gpgpu_stall_shd_mem[l_mem_ld][mshr_rc] = 0
gpgpu_stall_shd_mem[l_mem_ld][icnt_rc] = 0
gpgpu_stall_shd_mem[l_mem_ld][wb_icnt_rc] = 0
gpgpu_stall_shd_mem[l_mem_ld][wb_rsrv_fail] = 0
gpgpu_stall_shd_mem[l_mem_st][mshr_rc] = 0
gpgpu_stall_shd_mem[l_mem_st][icnt_rc] = 0
gpgpu_stall_shd_mem[l_mem_ld][wb_icnt_rc] = 0
gpgpu_stall_shd_mem[l_mem_ld][wb_rsrv_fail] = 0
gpu_reg_bank_conflict_stalls = 0
Warp Occupancy Distribution:
Stall:13931	W0_Idle:7357	W0_Scoreboard:19739	W1:1617	W2:1706	W3:1602	W4:1573	W5:1910	W6:2148	W7:2029	W8:1839	W9:69677	W10:1230	W11:880	W12:982	W13:1064	W14:1298	W15:978	W16:903	W17:828	W18:938	W19:914	W20:652	W21:625	W22:705	W23:1064	W24:1036	W25:1062	W26:1332	W27:1100	W28:1093	W29:981	W30:664	W31:754	W32:331573
traffic_breakdown_coretomem[CONST_ACC_R] = 360 {8:45,}
traffic_breakdown_coretomem[GLOBAL_ACC_R] = 37656 {8:4707,}
traffic_breakdown_coretomem[GLOBAL_ACC_W] = 172800 {40:499,72:504,136:857,}
traffic_breakdown_coretomem[INST_ACC_R] = 840 {8:105,}
traffic_breakdown_memtocore[CONST_ACC_R] = 3240 {72:45,}
traffic_breakdown_memtocore[GLOBAL_ACC_R] = 640152 {136:4707,}
traffic_breakdown_memtocore[GLOBAL_ACC_W] = 14880 {8:1860,}
traffic_breakdown_memtocore[INST_ACC_R] = 14280 {136:105,}
maxmrqlatency = 118 
maxdqlatency = 0 
maxmflatency = 726 
averagemflatency = 241 
max_icnt2mem_latency = 335 
max_icnt2sh_latency = 33744 
mrq_lat_table:1629 	488 	110 	148 	138 	66 	17 	0 	0 	0 	0 	0 	0 	0 	0 	0 	0 	0 	0 	0 	0 	0 	0 	0 	0 	0 	0 	0 	0 	0 	0 	0 	
dq_lat_table:0 	0 	0 	0 	0 	0 	0 	0 	0 	0 	0 	0 	0 	0 	0 	0 	0 	0 	0 	0 	0 	0 	0 	0 	0 	0 	0 	0 	0 	0 	0 	0 	
mf_lat_table:0 	0 	0 	0 	0 	0 	0 	4221 	2165 	226 	0 	0 	0 	0 	0 	0 	0 	0 	0 	0 	0 	0 	0 	0 	0 	0 	0 	0 	0 	0 	0 	0 	
icnt2mem_lat_table:0 	0 	0 	5114 	762 	276 	345 	199 	21 	0 	0 	0 	0 	0 	0 	0 	0 	0 	0 	0 	0 	0 	0 	0 	
icnt2sh_lat_table:0 	0 	0 	1273 	2911 	544 	24 	0 	0 	0 	0 	0 	284 	571 	986 	19 	0 	0 	0 	0 	0 	0 	0 	0 	
mf_lat_pw_table:0 	0 	0 	0 	0 	0 	0 	61 	5 	0 	0 	0 	0 	0 	0 	0 	0 	0 	0 	0 	0 	0 	0 	0 	0 	0 	0 	0 	0 	0 	0 	0 	
maximum concurrent accesses to same row:
dram[0]:         1         0         0         0         0         0         0         0         0         0         0         0         0         0         0         0 
dram[1]:         1         0         0         0         0         0         0         0         0         0         0         0         0         0         0         0 
dram[2]:         0         0         0         0         0         0         0         0         0         0         0         0         0         0         0         0 
dram[3]:         0         0         0         0         0         0         0         0         0         0         0         0         0         0         0         0 
dram[4]:         0         0         0         0         0         0         0         0         0         0         0         0         0         0         0         0 
dram[5]:         0         0         0         0         0         0         0         0         0         0         0         0         0         0         0         0 
maximum service time to same row:
dram[0]:       321         0         0         0      1510      1526      2057      2091      5944       868      6287      8956     18881     18919         0         0 
dram[1]:      2057         0         0         0      1509      1535      2059      1903      5969      5722      7529      8940     19441     19800         0         0 
dram[2]:      4713         0         0         0      1507      1494      2100      1854      5854      5743      8509      9047     18910     21282         0         0 
dram[3]:      5406         0         0         0      1519      1491      2032      1890      5724      5916      8847      8921     18907     21260         0         0 
dram[4]:         0         0         0         0      1516      1503      2153      2037       844      5899      8669      8918     19903     21141         0         0 
dram[5]:         0         0         0         0      1529      1499      2063      2238       847      5924      8666      9071     18925     21138         0         0 
average row accesses per activate:
dram[0]:  1.000000      -nan      -nan      -nan 10.000000 10.000000 32.000000 32.000000 48.000000 48.000000 65.000000 65.000000 62.000000 62.000000      -nan      -nan 
dram[1]:  3.000000      -nan      -nan      -nan 10.000000 10.000000 32.000000 32.000000 50.000000 52.000000 66.000000 65.000000 62.000000 56.000000      -nan      -nan 
dram[2]:  2.000000      -nan      -nan      -nan 10.000000 12.000000 32.000000 32.000000 48.000000 51.000000 64.000000 64.000000 60.000000 56.000000      -nan      -nan 
dram[3]:  1.000000      -nan      -nan      -nan 10.000000 12.000000 32.000000 32.000000 47.000000 52.000000 64.000000 65.000000 60.000000 56.000000      -nan      -nan 
dram[4]:      -nan      -nan      -nan      -nan 10.000000 12.000000 32.000000 32.000000 47.000000 53.000000 64.000000 64.000000 60.000000 56.000000      -nan      -nan 
dram[5]:      -nan      -nan      -nan      -nan 10.000000 12.000000 32.000000 32.000000 47.000000 51.000000 65.000000 64.000000 60.000000 56.000000      -nan      -nan 
average row locality = 2596/66 = 39.333332
number of total memory accesses made:
dram[0]:         0         0         0         0         0         0         0         0         0         0         0         0         0         0         0         0 
dram[1]:         0         0         0         0         0         0         0         0         0         0         0         0         0         0         0         0 
dram[2]:         0         0         0         0         0         0         0         0         0         0         0         0         0         0         0         0 
dram[3]:         0         0         0         0         0         0         0         0         0         0         0         0         0         0         0         0 
dram[4]:         0         0         0         0         0         0         0         0         0         0         0         0         0         0         0         0 
dram[5]:         0         0         0         0         0         0         0         0         0         0         0         0         0         0         0         0 
total accesses: 0
min_bank_accesses = 0!
min_chip_accesses = 0!
number of total read accesses:
dram[0]:         3         0         0         0        10        10        32        32        32        31        32        32        30        30         0         0 
dram[1]:         3         0         0         0        10        10        32        32        32        32        32        32        30        28         0         0 
dram[2]:         2         0         0         0        10        12        32        32        32        32        32        32        30        28         0         0 
dram[3]:         1         0         0         0        10        12        32        32        32        32        32        32        30        28         0         0 
dram[4]:         0         0         0         0        10        12        32        32        32        32        32        32        30        28         0         0 
dram[5]:         0         0         0         0        10        12        32        32        32        32        32        32        30        28         0         0 
total reads: 1638
min_bank_accesses = 0!
chip skew: 274/272 = 1.01
number of total write accesses:
dram[0]:         0         0         0         0         0         0         0         0        16        17        33        33        32        32         0         0 
dram[1]:         0         0         0         0         0         0         0         0        18        20        34        33        32        28         0         0 
dram[2]:         0         0         0         0         0         0         0         0        16        19        32        32        30        28         0         0 
dram[3]:         0         0         0         0         0         0         0         0        15        20        32        33        30        28         0         0 
[...]
traffic_breakdown_coretomem[CONST_ACC_R] = 600 {8:75,}
traffic_breakdown_coretomem[GLOBAL_ACC_R] = 1323184 {8:165398,}
traffic_breakdown_coretomem[GLOBAL_ACC_W] = 517200 {40:4279,72:1204,136:1907,}
traffic_breakdown_coretomem[INST_ACC_R] = 3000 {8:375,}
traffic_breakdown_memtocore[CONST_ACC_R] = 5400 {72:75,}
traffic_breakdown_memtocore[GLOBAL_ACC_R] = 22494128 {136:165398,}
traffic_breakdown_memtocore[GLOBAL_ACC_W] = 59120 {8:7390,}
traffic_breakdown_memtocore[INST_ACC_R] = 51000 {136:375,}
maxmrqlatency = 129 
maxdqlatency = 0 
maxmflatency = 726 
averagemflatency = 152 
max_icnt2mem_latency = 335 
max_icnt2sh_latency = 2796415 
mrq_lat_table:7477 	897 	205 	351 	379 	99 	30 	1 	0 	0 	0 	0 	0 	0 	0 	0 	0 	0 	0 	0 	0 	0 	0 	0 	0 	0 	0 	0 	0 	0 	0 	0 	
dq_lat_table:0 	0 	0 	0 	0 	0 	0 	0 	0 	0 	0 	0 	0 	0 	0 	0 	0 	0 	0 	0 	0 	0 	0 	0 	0 	0 	0 	0 	0 	0 	0 	0 	
mf_lat_table:0 	0 	0 	0 	0 	0 	0 	165524 	7113 	226 	0 	0 	0 	0 	0 	0 	0 	0 	0 	0 	0 	0 	0 	0 	0 	0 	0 	0 	0 	0 	0 	0 	
icnt2mem_lat_table:0 	0 	0 	170969 	1307 	368 	367 	204 	23 	0 	0 	0 	0 	0 	0 	0 	0 	0 	0 	0 	0 	0 	0 	0 	
icnt2sh_lat_table:0 	0 	0 	151103 	12811 	1529 	30 	0 	0 	0 	0 	0 	284 	571 	986 	628 	1666 	265 	285 	566 	1129 	1010 	0 	0 	
mf_lat_pw_table:0 	0 	0 	0 	0 	0 	0 	5550 	43 	0 	0 	0 	0 	0 	0 	0 	0 	0 	0 	0 	0 	0 	0 	0 	0 	0 	0 	0 	0 	0 	0 	0 	
maximum concurrent accesses to same row:
dram[0]:        66        68        67        66        28        28        32        32        48        48        65        65        64        64        47        47 
dram[1]:        66        70        69        65        31        28        32        32        50        52        66        65        64        60        48        48 
dram[2]:        66        70        70        68        34        25        32        32        48        51        64        64        62        60        47        50 
dram[3]:        71        66        69        67        32        24        32        32        47        52        64        65        62        60        46        51 
dram[4]:        68        65        68        64        25        26        32        32        47        53        64        64        62        60        48        53 
dram[5]:        68        64        66        64        28        25        32        32        47        51        65        64        62        60        49        53 
maximum service time to same row:
dram[0]:     19277     13714     56982     57210     88803     89840     13329     16867    704830   1585213      6287      8956     18881     18919       281       287 
dram[1]:     19762    105557     57088     57366     88967     90441     15887     17166   1262633   2347337      7529      8940     19441    400492       287       282 
dram[2]:     16146     81390     57356     57388     89140     90116     13460     14360    708820    965673      8509      9047     18910    404972      1534       422 
dram[3]:     16669     81684     57350     57507     89518     89950     15858     14478   1386468    722974      8847      8921     18907    408474       285       282 
dram[4]:     22699     23071     57722     58179     89856     90526     14307     16000   1445100   1415596      8669      8918     19903     21141       283       282 
dram[5]:     14861     25013     57213     57738     89334     89764     16540     16444    783783   1875884      8666      9071     18925     21138      1194       294 
average row accesses per activate:
dram[0]: 17.000000 34.000000 49.500000 49.000000  3.034483  2.727273  2.823529  3.310345  3.527778  5.291667 48.500000 48.500000 32.333332 48.000000 39.500000 39.500000 
dram[1]: 25.500000 18.000000 50.500000 48.500000  3.137931  2.696970  3.310345  3.096774  4.344828  5.076923 49.000000 48.500000 48.000000 31.333334 40.000000 40.000000 
dram[2]: 33.333332 21.400000 51.000000 50.000000  3.206897  3.068965  3.200000  2.909091  3.843750  6.095238 48.000000 48.000000 47.000000 31.333334 39.500000 41.000000 
dram[3]: 35.000000 20.799999 50.500000 49.500000  3.407408  2.838710  2.909091  3.310345  4.962963  5.250000 48.000000 48.500000 47.000000 31.333334 39.000000 41.500000 
dram[4]: 34.000000 33.000000 50.000000 48.000000  2.965517  2.870968  3.310345  3.555556  4.300000  5.772727 48.000000 48.000000 47.000000 31.333334 40.000000 42.500000 
dram[5]: 34.000000 32.666668 49.000000 48.000000  3.068965  2.666667  3.692308  2.742857  4.333333  5.857143 48.500000 48.000000 47.000000 31.333334 40.500000 42.500000 
average row locality = 9439/1198 = 7.878965
number of total memory accesses made:
dram[0]:         0         0         0         0         0         0         0         0         0         0         0         0         0         0         0         0 
dram[1]:         0         0         0         0         0         0         0         0         0         0         0         0         0         0         0         0 
dram[2]:         0         0         0         0         0         0         0         0         0         0         0         0         0         0         0         0 
dram[3]:         0         0         0         0         0         0         0         0         0         0         0         0         0         0         0         0 
dram[4]:         0         0         0         0         0         0         0         0         0         0         0         0         0         0         0         0 
dram[5]:         0         0         0         0         0         0         0         0         0         0         0         0         0         0         0         0 
total accesses: 0
min_bank_accesses = 0!
min_chip_accesses = 0!
number of total read accesses:
dram[0]:        68        66        64        64        74        74        96        96        94        93        64        64        64        64        64        64 
dram[1]:        68        68        64        64        74        74        96        96        94        93        64        64        64        64        64        64 
dram[2]:        66        68        64        64        74        76        96        96        94        92        64        64        64        64        64        64 
dram[3]:        66        68        64        64        74        76        96        96        94        92        64        64        64        64        64        64 
dram[4]:        66        66        64        64        74        76        96        96        94        92        64        64        64        64        64        64 
dram[5]:        66        66        64        64        74        76        96        96        94        92        64        64        64        64        64        64 
total reads: 7040
bank skew: 96/64 = 1.50
chip skew: 1175/1172 = 1.00
number of total write accesses:
dram[0]:        34        36        35        34        14        16         0         0        33        34        33        33        33        32        15        15 
dram[1]:        34        40        37        33        17        15         0         0        32        39        34        33        32        30        16        16 
dram[2]:        34        39        38        36        19        13         0         0        29        36        32        32        30        30        15        18 
dram[3]:        39        36        37        35        18        12         0         0        40        34        32        33        30        30        14        19 
dram[4]:        36        33        36        32        12        13         0         0        35        35        32        32        30        30        16        21 
dram[5]:        36        32        34        32        15        12         0         0        36        31        33        32        30        30        17        21 
total reads: 2399
min_bank_accesses = 0!
chip skew: 409/391 = 1.05
average mf latency per bank:
dram[0]:       2357      2279      2351      2375      3206      3164      3262      3453      2748      2698      2359      2470      2545      2516      3544      3473
dram[1]:       2431      2171      2367      2418      3200      3192      3441      3346      2635      2703      2452      2472      2603      2694      3503      3516
dram[2]:       2355      2234      2364      2339      3053      3109      3333      3429      2730      2688      2479      2622      2629      2697      3406      3341
dram[3]:       2238      2323      2298      2365      3044      3233      3339      3440      2668      2640      2518      2458      2521      2724      3681      3155
dram[4]:       2268      2349      2392      2538      3310      3239      3341      3358      2784      2610      2487      2432      2662      2664      3458      3275
dram[5]:       2355      2459      2433      2488      3162      3314      3434      3401      2688      2673      2450      2493      2624      2625      3491      3188
maximum mf latency per bank:
dram[0]:        310       312       301       277       653       528       345       605       359       342       301       294       346       320       351       341
dram[1]:        279       477       349       483       679       473       494       503       357       478       341       327       326       469       330       473
dram[2]:        318       280       322       334       693       456       611       473       349       347       338       299       314       326       321       348
dram[3]:        355       333       278       296       607       540       461       510       395       408       352       296       277       277       401       308
dram[4]:        290       296       361       307       621       576       575       468       362       393       294       277       341       323       305       351
dram[5]:        300       313       312       345       530       726       575       539       370       351       326       313       335       293       376       414

Number of Memory Banks Accessed per Memory Operation per Warp (from 0):
0	0	0	0	0	0	0	0	0	0	0	0	0	0	0	0	0	0	0	0	0	0	0	0	0	0	0	0	0	0	0	0	0	0	0	0	0	0	0	0	0	0	0	0	0	0	0	0	0	0	0	0	0	0	0	0	0	0	0	0	0	0	0	0	0	0	0	0	0	0	0	0	0	0	0	0	0	0	0	0	0	0	0	0	0	0	0	0	0	0	0	0	0	0	0	0	
Average # of Memory Banks Accessed per Memory Operation per Warp=-nan

position of mrq chosen
0	0	0	0	0	0	0	0	0	0	0	0	0	0	0	0	

average position of mrq chosen = -nan
Memory Partition 0: 
Cache L2_bank_000:
MSHR contents

Cache L2_bank_001:
MSHR contents

In Dram Latency Queue (total = 0): 
DRAM[0]: 16 bks, busW=4 BL=8 CL=12, tRRD=2 tCCD=6, tRCD=12 tRAS=28 tRP=12 tRC=40
n_cmd=3691267 n_nop=3687939 n_act=211 n_pre=195 n_req=1570 n_rd=2346 n_write=576 bw_util=0.001583
n_activity=27590 dram_eff=0.2118
bk0: 136a 3690415i bk1: 132a 3690481i bk2: 128a 3690582i bk3: 128a 3690624i bk4: 148a 3690103i bk5: 148a 3689928i bk6: 192a 3689982i bk7: 192a 3690085i bk8: 188a 3689529i bk9: 186a 3689775i bk10: 128a 3690385i bk11: 128a 3690379i bk12: 128a 3690418i bk13: 128a 3690498i bk14: 128a 3690680i bk15: 128a 3690703i 
dram_util_bins: 0 0 0 0 0 0 0 0 0 0
dram_eff_bins: 0 0 0 0 0 0 0 0 0 0
mrqq: max=9 avg=0.00129414
Memory Partition 1: 
Cache L2_bank_002:
MSHR contents

Cache L2_bank_003:
MSHR contents

In Dram Latency Queue (total = 0): 
DRAM[1]: 16 bks, busW=4 BL=8 CL=12, tRRD=2 tCCD=6, tRCD=12 tRAS=28 tRP=12 tRC=40
n_cmd=3691267 n_nop=3687924 n_act=205 n_pre=189 n_req=1583 n_rd=2350 n_write=599 bw_util=0.001598
n_activity=27400 dram_eff=0.2153
bk0: 136a 3690449i bk1: 136a 3690372i bk2: 128a 3690535i bk3: 128a 3690572i bk4: 148a 3690106i bk5: 148a 3689976i bk6: 192a 3690123i bk7: 192a 3690021i bk8: 188a 3689646i bk9: 186a 3689647i bk10: 128a 3690432i bk11: 128a 3690419i bk12: 128a 3690508i bk13: 128a 3690520i bk14: 128a 3690694i bk15: 128a 3690694i 
dram_util_bins: 0 0 0 0 0 0 0 0 0 0
dram_eff_bins: 0 0 0 0 0 0 0 0 0 0
mrqq: max=12 avg=0.00138137
Memory Partition 2: 
Cache L2_bank_004:
MSHR contents

Cache L2_bank_005:
MSHR contents

In Dram Latency Queue (total = 0): 
DRAM[2]: 16 bks, busW=4 BL=8 CL=12, tRRD=2 tCCD=6, tRCD=12 tRAS=28 tRP=12 tRC=40
n_cmd=3691267 n_nop=3687946 n_act=199 n_pre=183 n_req=1575 n_rd=2348 n_write=591 bw_util=0.001592
n_activity=27160 dram_eff=0.2164
bk0: 132a 3690523i bk1: 136a 3690470i bk2: 128a 3690528i bk3: 128a 3690566i bk4: 148a 3690108i bk5: 152a 3690082i bk6: 192a 3690098i bk7: 192a 3689976i bk8: 188a 3689593i bk9: 184a 3689821i bk10: 128a 3690408i bk11: 128a 3690330i bk12: 128a 3690481i bk13: 128a 3690437i bk14: 128a 3690699i bk15: 128a 3690727i 
dram_util_bins: 0 0 0 0 0 0 0 0 0 0
dram_eff_bins: 0 0 0 0 0 0 0 0 0 0
mrqq: max=9 avg=0.00105303
Memory Partition 3: 
Cache L2_bank_006:
MSHR contents

Cache L2_bank_007:
MSHR contents

In Dram Latency Queue (total = 0): 
DRAM[3]: 16 bks, busW=4 BL=8 CL=12, tRRD=2 tCCD=6, tRCD=12 tRAS=28 tRP=12 tRC=40
n_cmd=3691267 n_nop=3687936 n_act=196 n_pre=180 n_req=1583 n_rd=2348 n_write=607 bw_util=0.001601
n_activity=27093 dram_eff=0.2181
bk0: 132a 3690462i bk1: 136a 3690418i bk2: 128a 3690560i bk3: 128a 3690592i bk4: 148a 3690113i bk5: 152a 3690060i bk6: 192a 3690028i bk7: 192a 3690095i bk8: 188a 3689695i bk9: 184a 3689772i bk10: 128a 3690427i bk11: 128a 3690458i bk12: 128a 3690467i bk13: 128a 3690475i bk14: 128a 3690702i bk15: 128a 3690651i 
dram_util_bins: 0 0 0 0 0 0 0 0 0 0
dram_eff_bins: 0 0 0 0 0 0 0 0 0 0
mrqq: max=13 avg=0.00123264
Memory Partition 4: 
Cache L2_bank_008:
MSHR contents

Cache L2_bank_009:
MSHR contents

In Dram Latency Queue (total = 0): 
DRAM[4]: 16 bks, busW=4 BL=8 CL=12, tRRD=2 tCCD=6, tRCD=12 tRAS=28 tRP=12 tRC=40
n_cmd=3691267 n_nop=3687987 n_act=191 n_pre=175 n_req=1565 n_rd=2344 n_write=570 bw_util=0.001579
n_activity=26660 dram_eff=0.2186
bk0: 132a 3690493i bk1: 132a 3690517i bk2: 128a 3690539i bk3: 128a 3690604i bk4: 148a 3690164i bk5: 152a 3690048i bk6: 192a 3690110i bk7: 192a 3690112i bk8: 188a 3689645i bk9: 184a 3689811i bk10: 128a 3690391i bk11: 128a 3690439i bk12: 128a 3690513i bk13: 128a 3690453i bk14: 128a 3690762i bk15: 128a 3690600i 
dram_util_bins: 0 0 0 0 0 0 0 0 0 0
dram_eff_bins: 0 0 0 0 0 0 0 0 0 0
mrqq: max=11 avg=0.0010915
Memory Partition 5: 
Cache L2_bank_010:
MSHR contents

Cache L2_bank_011:
MSHR contents

In Dram Latency Queue (total = 0): 
DRAM[5]: 16 bks, busW=4 BL=8 CL=12, tRRD=2 tCCD=6, tRCD=12 tRAS=28 tRP=12 tRC=40
n_cmd=3691267 n_nop=3687968 n_act=197 n_pre=181 n_req=1563 n_rd=2344 n_write=577 bw_util=0.001583
n_activity=26818 dram_eff=0.2178
bk0: 132a 3690488i bk1: 132a 3690530i bk2: 128a 3690606i bk3: 128a 3690555i bk4: 148a 3690162i bk5: 152a 3690040i bk6: 192a 3690160i bk7: 192a 3689916i bk8: 188a 3689647i bk9: 184a 3689876i bk10: 128a 3690370i bk11: 128a 3690448i bk12: 128a 3690511i bk13: 128a 3690488i bk14: 128a 3690669i bk15: 128a 3690575i 
dram_util_bins: 0 0 0 0 0 0 0 0 0 0
dram_eff_bins: 0 0 0 0 0 0 0 0 0 0
mrqq: max=16 avg=0.00143853

========= L2 cache stats =========
L2_cache_bank[0]: Access = 14365, Miss = 588, Miss_rate = 0.041, Pending_hits = 160, Reservation_fails = 915
L2_cache_bank[1]: Access = 14361, Miss = 585, Miss_rate = 0.041, Pending_hits = 124, Reservation_fails = 569
L2_cache_bank[2]: Access = 14479, Miss = 588, Miss_rate = 0.041, Pending_hits = 164, Reservation_fails = 1279
L2_cache_bank[3]: Access = 14579, Miss = 587, Miss_rate = 0.040, Pending_hits = 134, Reservation_fails = 977
L2_cache_bank[4]: Access = 14290, Miss = 586, Miss_rate = 0.041, Pending_hits = 140, Reservation_fails = 938
L2_cache_bank[5]: Access = 14557, Miss = 588, Miss_rate = 0.040, Pending_hits = 131, Reservation_fails = 876
L2_cache_bank[6]: Access = 14375, Miss = 586, Miss_rate = 0.041, Pending_hits = 130, Reservation_fails = 782
L2_cache_bank[7]: Access = 14403, Miss = 588, Miss_rate = 0.041, Pending_hits = 138, Reservation_fails = 720
L2_cache_bank[8]: Access = 14511, Miss = 586, Miss_rate = 0.040, Pending_hits = 119, Reservation_fails = 487
L2_cache_bank[9]: Access = 14409, Miss = 586, Miss_rate = 0.041, Pending_hits = 134, Reservation_fails = 889
L2_cache_bank[10]: Access = 14539, Miss = 586, Miss_rate = 0.040, Pending_hits = 136, Reservation_fails = 652
L2_cache_bank[11]: Access = 14370, Miss = 586, Miss_rate = 0.041, Pending_hits = 128, Reservation_fails = 652
L2_total_cache_accesses = 173238
L2_total_cache_misses = 7040
L2_total_cache_miss_rate = 0.0406
L2_total_cache_pending_hits = 1638
L2_total_cache_reservation_fails = 9736
L2_total_cache_breakdown:
	L2_cache_stats_breakdown[GLOBAL_ACC_R][HIT] = 159119
	L2_cache_stats_breakdown[GLOBAL_ACC_R][HIT_RESERVED] = 1346
	L2_cache_stats_breakdown[GLOBAL_ACC_R][MISS] = 4933
	L2_cache_stats_breakdown[GLOBAL_ACC_R][RESERVATION_FAIL] = 8215
	L2_cache_stats_breakdown[CONST_ACC_R][HIT] = 63
	L2_cache_stats_breakdown[CONST_ACC_R][HIT_RESERVED] = 9
	L2_cache_stats_breakdown[CONST_ACC_R][MISS] = 3
	L2_cache_stats_breakdown[CONST_ACC_R][RESERVATION_FAIL] = 293
	L2_cache_stats_breakdown[GLOBAL_ACC_W][HIT] = 5073
	L2_cache_stats_breakdown[GLOBAL_ACC_W][HIT_RESERVED] = 238
	L2_cache_stats_breakdown[GLOBAL_ACC_W][MISS] = 2079
	L2_cache_stats_breakdown[GLOBAL_ACC_W][RESERVATION_FAIL] = 141
	L2_cache_stats_breakdown[INST_ACC_R][HIT] = 305
	L2_cache_stats_breakdown[INST_ACC_R][HIT_RESERVED] = 45
	L2_cache_stats_breakdown[INST_ACC_R][MISS] = 25
	L2_cache_stats_breakdown[INST_ACC_R][RESERVATION_FAIL] = 1087
L2_cache_data_port_util = 0.019
L2_cache_fill_port_util = 0.001

icnt_total_pkts_mem_to_simt=836480
icnt_total_pkts_simt_to_mem=187553
LD_mem_lat_dist  0 0 0 0 0 0 0 0 0 0 0 0 0 0 0 0 0 0 0 0 0 0 0 0 0 0 0
ST_mem_lat_dist  0 0 0 0 0 0 0 0 0 0 0 0 0 0 0 0 0 0 0 0 0 0 0 0 0 0 0
----------------------------Interconnect-DETAILS--------------------------------
Class 0:
Packet latency average = 9.55077
	minimum = 6
	maximum = 103
Network latency average = 9.14222
	minimum = 6
	maximum = 103
Slowest packet = 344295
Flit latency average = 7.29642
	minimum = 6
	maximum = 102
Slowest flit = 1018289
Fragmentation average = 0
	minimum = 0
	maximum = 0
Injected packet rate average = 0.00478484
	minimum = 0.00360568 (at node 7)
	maximum = 0.00694285 (at node 16)
Accepted packet rate average = 0.00478484
	minimum = 0.00360568 (at node 7)
	maximum = 0.00694285 (at node 16)
Injected flit rate average = 0.0131611
	minimum = 0.00429613 (at node 7)
	maximum = 0.0268508 (at node 26)
Accepted flit rate average= 0.0131611
	minimum = 0.00402762 (at node 22)
	maximum = 0.0200997 (at node 3)
Injected packet length average = 2.75059
Accepted packet length average = 2.75059
Total in-flight flits = 0 (0 measured)
====== Overall Traffic Statistics ======
====== Traffic class 0 ======
Packet latency average = 10.6631 (4 samples)
	minimum = 6 (4 samples)
	maximum = 96.5 (4 samples)
Network latency average = 9.89494 (4 samples)
	minimum = 6 (4 samples)
	maximum = 94.25 (4 samples)
Flit latency average = 8.17441 (4 samples)
	minimum = 6 (4 samples)
	maximum = 93 (4 samples)
Fragmentation average = 0 (4 samples)
	minimum = 0 (4 samples)
	maximum = 0 (4 samples)
Injected packet rate average = 0.0109684 (4 samples)
	minimum = 0.00907616 (4 samples)
	maximum = 0.0135295 (4 samples)
Accepted packet rate average = 0.0109684 (4 samples)
	minimum = 0.00907616 (4 samples)
	maximum = 0.0135295 (4 samples)
Injected flit rate average = 0.031545 (4 samples)
	minimum = 0.0126668 (4 samples)
	maximum = 0.0585161 (4 samples)
Accepted flit rate average = 0.031545 (4 samples)
	minimum = 0.0159425 (4 samples)
	maximum = 0.0470549 (4 samples)
Injected packet size average = 2.876 (4 samples)
Accepted packet size average = 2.876 (4 samples)
Hops average = 1 (4 samples)
----------------------------END-of-Interconnect-DETAILS-------------------------


gpgpu_simulation_time = 0 days, 1 hrs, 29 min, 20 sec (5360 sec)
gpgpu_simulation_rate = 14617 (inst/sec)
gpgpu_simulation_rate = 521 (cycle/sec)
7 2 1 0 4 1 4 9 6 9 0 6 9 0 1 5 9 7 3 4 9 6 6 5 4 0 7 4
