

        *** GPGPU-Sim Simulator Version 3.2.2  [build 0] ***


GPGPU-Sim PTX: simulation mode 0 (can change with PTX_SIM_MODE_FUNC environment variable:
               1=functional simulation only, 0=detailed performance simulator)
GPGPU-Sim: Configuration options:

-network_mode                           1 # Interconnection network mode
-inter_config_file   config_fermi_islip.icnt # Interconnection network config file
-gpgpu_ptx_use_cuobjdump                    1 # Use cuobjdump to extract ptx and sass from binaries
-gpgpu_experimental_lib_support                    0 # Try to extract code from cuda libraries [Broken because of unknown cudaGetExportTable]
-gpgpu_ptx_convert_to_ptxplus                    0 # Convert SASS (native ISA) to ptxplus and run ptxplus
-gpgpu_ptx_force_max_capability                   20 # Force maximum compute capability
-gpgpu_ptx_inst_debug_to_file                    0 # Dump executed instructions' debug information to file
-gpgpu_ptx_inst_debug_file       inst_debug.txt # Executed instructions' debug output file
-gpgpu_ptx_inst_debug_thread_uid                    1 # Thread UID for executed instructions' debug output
-gpgpu_simd_model                       1 # 1 = post-dominator
-gpgpu_shader_core_pipeline              1536:32 # shader core pipeline config, i.e., {<nthread>:<warpsize>}
-gpgpu_tex_cache:l1  4:128:24,L:R:m:N:L,F:128:4,128:2 # per-shader L1 texture cache  (READ-ONLY) config  {<nsets>:<bsize>:<assoc>,<rep>:<wr>:<alloc>:<wr_alloc>,<mshr>:<N>:<merge>,<mq>:<rf>}
-gpgpu_const_cache:l1 64:64:2,L:R:f:N:L,A:2:32,4 # per-shader L1 constant memory cache  (READ-ONLY) config  {<nsets>:<bsize>:<assoc>,<rep>:<wr>:<alloc>:<wr_alloc>,<mshr>:<N>:<merge>,<mq>} 
-gpgpu_cache:il1     4:128:4,L:R:f:N:L,A:2:32,4 # shader L1 instruction cache config  {<nsets>:<bsize>:<assoc>,<rep>:<wr>:<alloc>:<wr_alloc>,<mshr>:<N>:<merge>,<mq>} 
-gpgpu_cache:dl1     32:128:4,L:L:m:N:H,A:32:8,8 # per-shader L1 data cache config  {<nsets>:<bsize>:<assoc>,<rep>:<wr>:<alloc>:<wr_alloc>,<mshr>:<N>:<merge>,<mq> | none}
-gpgpu_cache:dl1PrefL1                 none # per-shader L1 data cache config  {<nsets>:<bsize>:<assoc>,<rep>:<wr>:<alloc>:<wr_alloc>,<mshr>:<N>:<merge>,<mq> | none}
-gpgpu_cache:dl1PreShared                 none # per-shader L1 data cache config  {<nsets>:<bsize>:<assoc>,<rep>:<wr>:<alloc>:<wr_alloc>,<mshr>:<N>:<merge>,<mq> | none}
-gmem_skip_L1D                          0 # global memory access skip L1D cache (implements -Xptxas -dlcm=cg, default=no skip)
-gpgpu_perfect_mem                      0 # enable perfect memory mode (no cache miss)
-n_regfile_gating_group                    4 # group of lanes that should be read/written together)
-gpgpu_clock_gated_reg_file                    0 # enable clock gated reg file for power calculations
-gpgpu_clock_gated_lanes                    0 # enable clock gated lanes for power calculations
-gpgpu_shader_registers                32768 # Number of registers per shader core. Limits number of concurrent CTAs. (default 8192)
-gpgpu_shader_cta                       8 # Maximum number of concurrent CTAs in shader (default 8)
-gpgpu_num_cta_barriers                   16 # Maximum number of named barriers per CTA (default 16)
-gpgpu_n_clusters                      15 # number of processing clusters
-gpgpu_n_cores_per_cluster                    1 # number of simd cores per cluster
-gpgpu_n_cluster_ejection_buffer_size                    8 # number of packets in ejection buffer
-gpgpu_n_ldst_response_buffer_size                    2 # number of response packets in ld/st unit ejection buffer
-gpgpu_shmem_size                   16384 # Size of shared memory per shader core (default 16kB)
-gpgpu_shmem_size                   49152 # Size of shared memory per shader core (default 16kB)
-gpgpu_shmem_size_PrefL1                16384 # Size of shared memory per shader core (default 16kB)
-gpgpu_shmem_size_PrefShared                16384 # Size of shared memory per shader core (default 16kB)
-gpgpu_shmem_num_banks                   32 # Number of banks in the shared memory in each shader core (default 16)
-gpgpu_shmem_limited_broadcast                    0 # Limit shared memory to do one broadcast per cycle (default on)
-gpgpu_shmem_warp_parts                    1 # Number of portions a warp is divided into for shared memory bank conflict check 
-gpgpu_warpdistro_shader                   -1 # Specify which shader core to collect the warp size distribution from
-gpgpu_warp_issue_shader                    0 # Specify which shader core to collect the warp issue distribution from
-gpgpu_local_mem_map                    1 # Mapping from local memory space address to simulated GPU physical address space (default = enabled)
-gpgpu_num_reg_banks                   16 # Number of register banks (default = 8)
-gpgpu_reg_bank_use_warp_id                    0 # Use warp ID in mapping registers to banks (default = off)
-gpgpu_operand_collector_num_units_sp                    6 # number of collector units (default = 4)
-gpgpu_operand_collector_num_units_sfu                    8 # number of collector units (default = 4)
-gpgpu_operand_collector_num_units_mem                    2 # number of collector units (default = 2)
-gpgpu_operand_collector_num_units_gen                    0 # number of collector units (default = 0)
-gpgpu_operand_collector_num_in_ports_sp                    2 # number of collector unit in ports (default = 1)
-gpgpu_operand_collector_num_in_ports_sfu                    1 # number of collector unit in ports (default = 1)
-gpgpu_operand_collector_num_in_ports_mem                    1 # number of collector unit in ports (default = 1)
-gpgpu_operand_collector_num_in_ports_gen                    0 # number of collector unit in ports (default = 0)
-gpgpu_operand_collector_num_out_ports_sp                    2 # number of collector unit in ports (default = 1)
-gpgpu_operand_collector_num_out_ports_sfu                    1 # number of collector unit in ports (default = 1)
-gpgpu_operand_collector_num_out_ports_mem                    1 # number of collector unit in ports (default = 1)
-gpgpu_operand_collector_num_out_ports_gen                    0 # number of collector unit in ports (default = 0)
-gpgpu_coalesce_arch                   13 # Coalescing arch (default = 13, anything else is off for now)
-gpgpu_num_sched_per_core                    1 # Number of warp schedulers per core
-gpgpu_max_insn_issue_per_warp                    1 # Max number of instructions that can be issued per warp in one cycle by scheduler
-gpgpu_simt_core_sim_order                    1 # Select the simulation order of cores in a cluster (0=Fix, 1=Round-Robin)
-gpgpu_pipeline_widths        2,1,1,2,1,1,2 # Pipeline widths ID_OC_SP,ID_OC_SFU,ID_OC_MEM,OC_EX_SP,OC_EX_SFU,OC_EX_MEM,EX_WB
-gpgpu_num_sp_units                     2 # Number of SP units (default=1)
-gpgpu_num_sfu_units                    1 # Number of SF units (default=1)
-gpgpu_num_mem_units                    1 # Number if ldst units (default=1) WARNING: not hooked up to anything
-gpgpu_scheduler                      gto # Scheduler configuration: < lrr | gto | two_level_active > If two_level_active:<num_active_warps>:<inner_prioritization>:<outer_prioritization>For complete list of prioritization values see shader.h enum scheduler_prioritization_typeDefault: gto
-gpgpu_dram_scheduler                    1 # 0 = fifo, 1 = FR-FCFS (defaul)
-gpgpu_dram_partition_queues              8:8:8:8 # i2$:$2d:d2$:$2i
-l2_ideal                               0 # Use a ideal L2 cache that always hit
-gpgpu_cache:dl2     64:128:8,L:B:m:W:L,A:32:4,4:0,32 # unified banked L2 data cache config  {<nsets>:<bsize>:<assoc>,<rep>:<wr>:<alloc>:<wr_alloc>,<mshr>:<N>:<merge>,<mq>}
-gpgpu_cache:dl2_texture_only                    0 # L2 cache used for texture only
-gpgpu_n_mem                            6 # number of memory modules (e.g. memory controllers) in gpu
-gpgpu_n_sub_partition_per_mchannel                    2 # number of memory subpartition in each memory module
-gpgpu_n_mem_per_ctrlr                    2 # number of memory chips per memory controller
-gpgpu_memlatency_stat                   14 # track and display latency statistics 0x2 enables MC, 0x4 enables queue logs
-gpgpu_frfcfs_dram_sched_queue_size                   16 # 0 = unlimited (default); # entries per chip
-gpgpu_dram_return_queue_size                  116 # 0 = unlimited (default); # entries per chip
-gpgpu_dram_buswidth                    4 # default = 4 bytes (8 bytes per cycle at DDR)
-gpgpu_dram_burst_length                    8 # Burst length of each DRAM request (default = 4 data bus cycle)
-dram_data_command_freq_ratio                    4 # Frequency ratio between DRAM data bus and command bus (default = 2 times, i.e. DDR)
-gpgpu_dram_timing_opt nbk=16:CCD=2:RRD=6:RCD=12:RAS=28:RP=12:RC=40: CL=12:WL=4:CDLR=5:WR=12:nbkgrp=4:CCDL=3:RTPL=2 # DRAM timing parameters = {nbk:tCCD:tRRD:tRCD:tRAS:tRP:tRC:CL:WL:tCDLR:tWR:nbkgrp:tCCDL:tRTPL}
-rop_latency                          120 # ROP queue latency (default 85)
-dram_latency                         100 # DRAM latency (default 30)
-gpgpu_mem_addr_mapping dramid@8;00000000.00000000.00000000.00000000.0000RRRR.RRRRRRRR.BBBCCCCB.CCSSSSSS # mapping memory address to dram model {dramid@<start bit>;<memory address map>}
-gpgpu_mem_addr_test                    0 # run sweep test to check address mapping for aliased address
-gpgpu_mem_address_mask                    1 # 0 = old addressing mask, 1 = new addressing mask, 2 = new add. mask + flipped bank sel and chip sel bits
-gpuwattch_xml_file  gpuwattch_gtx480.xml # GPUWattch XML file
-power_simulation_enabled                    1 # Turn on power simulator (1=On, 0=Off)
-power_per_cycle_dump                    0 # Dump detailed power output each cycle
-power_trace_enabled                    0 # produce a file for the power trace (1=On, 0=Off)
-power_trace_zlevel                     6 # Compression level of the power trace output log (0=no comp, 9=highest)
-steady_power_levels_enabled                    0 # produce a file for the steady power levels (1=On, 0=Off)
-steady_state_definition                  8:4 # allowed deviation:number of samples
-gpgpu_max_cycle                        0 # terminates gpu simulation early (0 = no limit)
-gpgpu_max_insn                         0 # terminates gpu simulation early (0 = no limit)
-gpgpu_max_cta                          0 # terminates gpu simulation early (0 = no limit)
-gpgpu_runtime_stat                   500 # display runtime statistics such as dram utilization {<freq>:<flag>}
-liveness_message_freq                    1 # Minimum number of seconds between simulation liveness messages (0 = always print)
-gpgpu_flush_l1_cache                    0 # Flush L1 cache at the end of each kernel call
-gpgpu_flush_l2_cache                    0 # Flush L2 cache at the end of each kernel call
-gpgpu_deadlock_detect                    1 # Stop the simulation at deadlock (1=on (default), 0=off)
-gpgpu_ptx_instruction_classification                    0 # if enabled will classify ptx instruction types per kernel (Max 255 kernels now)
-gpgpu_ptx_sim_mode                     0 # Select between Performance (default) or Functional simulation (1)
-gpgpu_clock_domains 700.0:700.0:700.0:924.0 # Clock Domain Frequencies in MhZ {<Core Clock>:<ICNT Clock>:<L2 Clock>:<DRAM Clock>}
-gpgpu_max_concurrent_kernel                    8 # maximum kernels that can run concurrently on GPU
-gpgpu_cflog_interval                    0 # Interval between each snapshot in control flow logger
-visualizer_enabled                     0 # Turn on visualizer output (1=On, 0=Off)
-visualizer_outputfile                 NULL # Specifies the output log file for visualizer
-visualizer_zlevel                      6 # Compression level of the visualizer output log (0=no comp, 9=highest)
-trace_enabled                          0 # Turn on traces
-trace_components                    none # comma seperated list of traces to enable. Complete list found in trace_streams.tup. Default none
-trace_sampling_core                    0 # The core which is printed using CORE_DPRINTF. Default 0
-trace_sampling_memory_partition                   -1 # The memory partition which is printed using MEMPART_DPRINTF. Default -1 (i.e. all)
-enable_ptx_file_line_stats                    1 # Turn on PTX source line statistic profiling. (1 = On)
-ptx_line_stats_filename gpgpu_inst_stats.txt # Output file for PTX source line statistics.
-save_embedded_ptx                      0 # saves ptx files embedded in binary as <n>.ptx
-keep                                   0 # keep intermediate files created by GPGPU-Sim when interfacing with external programs
-gpgpu_ptx_save_converted_ptxplus                    0 # Saved converted ptxplus to a file
-ptx_opcode_latency_int         4,13,4,5,145 # Opcode latencies for integers <ADD,MAX,MUL,MAD,DIV>Default 1,1,19,25,145
-ptx_opcode_latency_fp          4,13,4,5,39 # Opcode latencies for single precision floating points <ADD,MAX,MUL,MAD,DIV>Default 1,1,1,1,30
-ptx_opcode_latency_dp         8,19,8,8,330 # Opcode latencies for double precision floating points <ADD,MAX,MUL,MAD,DIV>Default 8,8,8,8,335
-ptx_opcode_initiation_int            1,2,2,1,8 # Opcode initiation intervals for integers <ADD,MAX,MUL,MAD,DIV>Default 1,1,4,4,32
-ptx_opcode_initiation_fp            1,2,1,1,4 # Opcode initiation intervals for single precision floating points <ADD,MAX,MUL,MAD,DIV>Default 1,1,1,1,5
-ptx_opcode_initiation_dp         8,16,8,8,130 # Opcode initiation intervals for double precision floating points <ADD,MAX,MUL,MAD,DIV>Default 8,8,8,8,130
DRAM Timing Options:
nbk                                    16 # number of banks
CCD                                     2 # column to column delay
RRD                                     6 # minimal delay between activation of rows in different banks
RCD                                    12 # row to column delay
RAS                                    28 # time needed to activate row
RP                                     12 # time needed to precharge (deactivate) row
RC                                     40 # row cycle time
CDLR                                    5 # switching from write to read (changes tWTR)
WR                                     12 # last data-in to row precharge
CL                                     12 # CAS latency
WL                                      4 # Write latency
nbkgrp                                  4 # number of bank groups
CCDL                                    3 # column to column delay between accesses to different bank groups
RTPL                                    2 # read to precharge delay between accesses to different bank groups
Total number of memory sub partition = 12
addr_dec_mask[CHIP]  = 0000000000000000 	high:64 low:0
addr_dec_mask[BK]    = 000000000000e100 	high:16 low:8
addr_dec_mask[ROW]   = 000000000fff0000 	high:28 low:16
addr_dec_mask[COL]   = 0000000000001eff 	high:13 low:0
addr_dec_mask[BURST] = 000000000000003f 	high:6 low:0
sub_partition_id_mask = 0000000000000100
GPGPU-Sim uArch: clock freqs: 700000000.000000:700000000.000000:700000000.000000:924000000.000000
GPGPU-Sim uArch: clock periods: 0.00000000142857142857:0.00000000142857142857:0.00000000142857142857:0.00000000108225108225
*** Initializing Memory Statistics ***
GPGPU-Sim uArch: interconnect node map (shaderID+MemID to icntID)
GPGPU-Sim uArch: Memory nodes ID start from index: 15
GPGPU-Sim uArch:    0   1   2   3   4
GPGPU-Sim uArch:    5   6   7   8   9
GPGPU-Sim uArch:   10  11  12  13  14
GPGPU-Sim uArch:   15  16  17  18  19
GPGPU-Sim uArch:   20  21  22  23  24
GPGPU-Sim uArch:   25  26
GPGPU-Sim uArch: interconnect node reverse map (icntID to shaderID+MemID)
GPGPU-Sim uArch: Memory nodes start from ID: 15
GPGPU-Sim uArch:    0   1   2   3   4
GPGPU-Sim uArch:    5   6   7   8   9
GPGPU-Sim uArch:   10  11  12  13  14
GPGPU-Sim uArch:   15  16  17  18  19
GPGPU-Sim uArch:   20  21  22  23  24
GPGPU-Sim uArch:   25  26
03b9286cba6ad3de9af5d785bd8bc158  /home/kishore/project_source/gpu_class_proj/gpgpusim-benchmarks-master/bin/release/NN
GPGPU-Sim uArch: performance model initialization complete.
GPGPU-Sim PTX: __cudaRegisterFatBinary, fat_cubin_handle = 1, filename=NN.cu
self exe links to: /home/kishore/project_source/gpu_class_proj/gpgpusim-benchmarks-master/bin/release/NN
Running md5sum using "md5sum /home/kishore/project_source/gpu_class_proj/gpgpusim-benchmarks-master/bin/release/NN "
Running cuobjdump using "$CUDA_INSTALL_PATH/bin/cuobjdump -ptx -elf -sass /home/kishore/project_source/gpu_class_proj/gpgpusim-benchmarks-master/bin/release/NN > _cuobjdump_complete_output_MHCNgj"
Parsing file _cuobjdump_complete_output_MHCNgj
######### cuobjdump parser ########
## Adding new section PTX
Adding ptx filename: _cuobjdump_1.ptx
Adding arch: sm_10
Adding identifier: NN.cu
## Adding new section ELF
Adding arch: sm_10
Adding identifier: NN.cu
## Adding new section ELF
Adding arch: sm_20
Adding identifier: NN.cu
## Adding new section PTX
Adding ptx filename: _cuobjdump_2.ptx
Adding arch: sm_20
Adding identifier: NN.cu
Done parsing!!!
GPGPU-Sim PTX: __cudaRegisterFunction _Z18executeFourthLayerPfS_S_ : hostFun 0x0x4010a0, fat_cubin_handle = 1
GPGPU-Sim PTX: allocating constant region for "kernelTemplate" from 0x100 to 0x164 (global memory space) 1
GPGPU-Sim PTX: instruction assembly for function '_Z17executeFirstLayerPfS_S_'...   done.
GPGPU-Sim PTX: finding reconvergence points for '_Z17executeFirstLayerPfS_S_'...
GPGPU-Sim PTX: Finding dominators for '_Z17executeFirstLayerPfS_S_'...
GPGPU-Sim PTX: Finding immediate dominators for '_Z17executeFirstLayerPfS_S_'...
GPGPU-Sim PTX: Finding postdominators for '_Z17executeFirstLayerPfS_S_'...
GPGPU-Sim PTX: Finding immediate postdominators for '_Z17executeFirstLayerPfS_S_'...
GPGPU-Sim PTX: pre-decoding instructions for '_Z17executeFirstLayerPfS_S_'...
GPGPU-Sim PTX: reconvergence points for _Z17executeFirstLayerPfS_S_...
GPGPU-Sim PTX:  1 (potential) branch divergence @  PC=0x100 (_1.ptx:100) @%p1 bra $Lt_0_4098;
GPGPU-Sim PTX:    immediate post dominator      @  PC=0x108 (_1.ptx:102) cvt.f64.f32 %fd1, %f1;
GPGPU-Sim PTX:  2 (potential) branch divergence @  PC=0x148 (_1.ptx:110) @!%p2 bra $Lt_0_4866;
GPGPU-Sim PTX:    immediate post dominator      @  PC=0x2a8 (_1.ptx:162) cvt.f64.f32 %fd5, %f29;
GPGPU-Sim PTX:  3 (potential) branch divergence @  PC=0x230 (_1.ptx:142) bra.uni $Lt_0_4610;
GPGPU-Sim PTX:    immediate post dominator      @  PC=0x2a8 (_1.ptx:162) cvt.f64.f32 %fd5, %f29;
GPGPU-Sim PTX: ... end of reconvergence points for _Z17executeFirstLayerPfS_S_
GPGPU-Sim PTX: ... done pre-decoding instructions for '_Z17executeFirstLayerPfS_S_'.
GPGPU-Sim PTX: allocating constant region for "kernelTemplate2" from 0x180 to 0x1e4 (global memory space) 2
GPGPU-Sim PTX: instruction assembly for function '_Z18executeSecondLayerPfS_S_'...   done.
GPGPU-Sim PTX: finding reconvergence points for '_Z18executeSecondLayerPfS_S_'...
GPGPU-Sim PTX: Finding dominators for '_Z18executeSecondLayerPfS_S_'...
GPGPU-Sim PTX: Finding immediate dominators for '_Z18executeSecondLayerPfS_S_'...
GPGPU-Sim PTX: Finding postdominators for '_Z18executeSecondLayerPfS_S_'...
GPGPU-Sim PTX: Finding immediate postdominators for '_Z18executeSecondLayerPfS_S_'...
GPGPU-Sim PTX: pre-decoding instructions for '_Z18executeSecondLayerPfS_S_'...
GPGPU-Sim PTX: reconvergence points for _Z18executeSecondLayerPfS_S_...
GPGPU-Sim PTX:  1 (potential) branch divergence @  PC=0x4a0 (_1.ptx:251) @%p1 bra $Lt_1_5634;
GPGPU-Sim PTX:    immediate post dominator      @  PC=0x4a8 (_1.ptx:253) cvt.f64.f32 %fd1, %f1;
GPGPU-Sim PTX:  2 (potential) branch divergence @  PC=0x4e8 (_1.ptx:261) @!%p2 bra $Lt_1_6402;
GPGPU-Sim PTX:    immediate post dominator      @  PC=0x648 (_1.ptx:313) cvt.f64.f32 %fd5, %f44;
GPGPU-Sim PTX:  3 (potential) branch divergence @  PC=0x5d0 (_1.ptx:293) bra.uni $Lt_1_6146;
GPGPU-Sim PTX:    immediate post dominator      @  PC=0x648 (_1.ptx:313) cvt.f64.f32 %fd5, %f44;
GPGPU-Sim PTX: ... end of reconvergence points for _Z18executeSecondLayerPfS_S_
GPGPU-Sim PTX: ... done pre-decoding instructions for '_Z18executeSecondLayerPfS_S_'.
GPGPU-Sim PTX: instruction assembly for function '_Z17executeThirdLayerPfS_S_'...   done.
GPGPU-Sim PTX: finding reconvergence points for '_Z17executeThirdLayerPfS_S_'...
GPGPU-Sim PTX: Finding dominators for '_Z17executeThirdLayerPfS_S_'...
GPGPU-Sim PTX: Finding immediate dominators for '_Z17executeThirdLayerPfS_S_'...
GPGPU-Sim PTX: Finding postdominators for '_Z17executeThirdLayerPfS_S_'...
GPGPU-Sim PTX: Finding immediate postdominators for '_Z17executeThirdLayerPfS_S_'...
GPGPU-Sim PTX: pre-decoding instructions for '_Z17executeThirdLayerPfS_S_'...
GPGPU-Sim PTX: reconvergence points for _Z17executeThirdLayerPfS_S_...
GPGPU-Sim PTX:  1 (potential) branch divergence @  PC=0x788 (_1.ptx:373) @%p1 bra $Lt_2_4098;
GPGPU-Sim PTX:    immediate post dominator      @  PC=0x790 (_1.ptx:375) cvt.f64.f32 %fd1, %f1;
GPGPU-Sim PTX:  2 (potential) branch divergence @  PC=0x7d0 (_1.ptx:383) @!%p2 bra $Lt_2_4866;
GPGPU-Sim PTX:    immediate post dominator      @  PC=0x930 (_1.ptx:435) cvt.f64.f32 %fd5, %f29;
GPGPU-Sim PTX:  3 (potential) branch divergence @  PC=0x8b8 (_1.ptx:415) bra.uni $Lt_2_4610;
GPGPU-Sim PTX:    immediate post dominator      @  PC=0x930 (_1.ptx:435) cvt.f64.f32 %fd5, %f29;
GPGPU-Sim PTX: ... end of reconvergence points for _Z17executeThirdLayerPfS_S_
GPGPU-Sim PTX: ... done pre-decoding instructions for '_Z17executeThirdLayerPfS_S_'.
GPGPU-Sim PTX: instruction assembly for function '_Z18executeFourthLayerPfS_S_'...   done.
GPGPU-Sim PTX: finding reconvergence points for '_Z18executeFourthLayerPfS_S_'...
GPGPU-Sim PTX: Finding dominators for '_Z18executeFourthLayerPfS_S_'...
GPGPU-Sim PTX: Finding immediate dominators for '_Z18executeFourthLayerPfS_S_'...
GPGPU-Sim PTX: Finding postdominators for '_Z18executeFourthLayerPfS_S_'...
GPGPU-Sim PTX: Finding immediate postdominators for '_Z18executeFourthLayerPfS_S_'...
GPGPU-Sim PTX: pre-decoding instructions for '_Z18executeFourthLayerPfS_S_'...
GPGPU-Sim PTX: reconvergence points for _Z18executeFourthLayerPfS_S_...
GPGPU-Sim PTX:  1 (potential) branch divergence @  PC=0xa50 (_1.ptx:491) @%p1 bra $Lt_3_4098;
GPGPU-Sim PTX:    immediate post dominator      @  PC=0xa58 (_1.ptx:493) cvt.f64.f32 %fd1, %f1;
GPGPU-Sim PTX:  2 (potential) branch divergence @  PC=0xa98 (_1.ptx:501) @!%p2 bra $Lt_3_4866;
GPGPU-Sim PTX:    immediate post dominator      @  PC=0xbf8 (_1.ptx:553) cvt.f64.f32 %fd5, %f29;
GPGPU-Sim PTX:  3 (potential) branch divergence @  PC=0xb80 (_1.ptx:533) bra.uni $Lt_3_4610;
GPGPU-Sim PTX:    immediate post dominator      @  PC=0xbf8 (_1.ptx:553) cvt.f64.f32 %fd5, %f29;
GPGPU-Sim PTX: ... end of reconvergence points for _Z18executeFourthLayerPfS_S_
GPGPU-Sim PTX: ... done pre-decoding instructions for '_Z18executeFourthLayerPfS_S_'.
GPGPU-Sim PTX: finished parsing EMBEDDED .ptx file _1.ptx
Adding _cuobjdump_2.ptx with cubin handle 1
GPGPU-Sim PTX: extracting embedded .ptx to temporary file "_ptx_HJfDE6"
Running: cat _ptx_HJfDE6 | sed 's/.version 1.5/.version 1.4/' | sed 's/, texmode_independent//' | sed 's/\(\.extern \.const\[1\] .b8 \w\+\)\[\]/\1\[1\]/' | sed 's/const\[.\]/const\[0\]/g' > _ptx2_8rku2T
GPGPU-Sim PTX: generating ptxinfo using "$CUDA_INSTALL_PATH/bin/ptxas --gpu-name=sm_20 -v _ptx2_8rku2T --output-file  /dev/null 2> _ptx_HJfDE6info"
GPGPU-Sim PTX: Kernel '_Z18executeFourthLayerPfS_S_' : regs=12, lmem=0, smem=0, cmem=288
GPGPU-Sim PTX: Kernel '_Z17executeThirdLayerPfS_S_' : regs=12, lmem=0, smem=0, cmem=288
GPGPU-Sim PTX: Kernel '_Z18executeSecondLayerPfS_S_' : regs=22, lmem=0, smem=0, cmem=288
GPGPU-Sim PTX: Kernel '_Z17executeFirstLayerPfS_S_' : regs=17, lmem=0, smem=0, cmem=288
GPGPU-Sim PTX: removing ptxinfo using "rm -f _ptx_HJfDE6 _ptx2_8rku2T _ptx_HJfDE6info"
GPGPU-Sim PTX: loading globals with explicit initializers... 
GPGPU-Sim PTX: finished loading globals (0 bytes total).
GPGPU-Sim PTX: loading constants with explicit initializers...  done.
GPGPU-Sim PTX: __cudaRegisterFunction _Z17executeThirdLayerPfS_S_ : hostFun 0x0x401130, fat_cubin_handle = 1
GPGPU-Sim PTX: __cudaRegisterFunction _Z18executeSecondLayerPfS_S_ : hostFun 0x0x4011c0, fat_cubin_handle = 1
GPGPU-Sim PTX: __cudaRegisterFunction _Z17executeFirstLayerPfS_S_ : hostFun 0x0x401250, fat_cubin_handle = 1
GPGPU-Sim PTX: __cudaRegisterVar: hostVar = 0x610180; deviceAddress = kernelTemplate; deviceName = kernelTemplate
GPGPU-Sim PTX: __cudaRegisterVar: Registering const memory space of 100 bytes
GPGPU-Sim PTX registering constant kernelTemplate (100 bytes) to name mapping
GPGPU-Sim PTX: __cudaRegisterVar: hostVar = 0x610200; deviceAddress = kernelTemplate2; deviceName = kernelTemplate2
GPGPU-Sim PTX: __cudaRegisterVar: Registering const memory space of 100 bytes
GPGPU-Sim PTX registering constant kernelTemplate2 (100 bytes) to name mapping
magic number = 2051
number of items = 10000
number of rows = 28
number of rows = 28
NUM=28

GPGPU-Sim PTX: cudaLaunch for 0x0x401250 (mode=performance simulation) on stream 0
GPGPU-Sim PTX: pushing kernel '_Z17executeFirstLayerPfS_S_' to stream 0, gridDim= (6,28,1) blockDim = (13,13,1) 
kernel '_Z17executeFirstLayerPfS_S_' transfer to GPU hardware scheduler
GPGPU-Sim uArch: Shader 1 bind to kernel 1 '_Z17executeFirstLayerPfS_S_'
GPGPU-Sim uArch: CTA/core = 8, limited by: threads regs cta_limit
GPGPU-Sim uArch: core:  1, cta: 0 initialized @(1,0)
GPGPU-Sim uArch: Shader 2 bind to kernel 1 '_Z17executeFirstLayerPfS_S_'
GPGPU-Sim uArch: core:  2, cta: 0 initialized @(1,0)
GPGPU-Sim uArch: Shader 3 bind to kernel 1 '_Z17executeFirstLayerPfS_S_'
GPGPU-Sim uArch: core:  3, cta: 0 initialized @(1,0)
GPGPU-Sim uArch: Shader 4 bind to kernel 1 '_Z17executeFirstLayerPfS_S_'
GPGPU-Sim uArch: core:  4, cta: 0 initialized @(1,0)
GPGPU-Sim uArch: Shader 5 bind to kernel 1 '_Z17executeFirstLayerPfS_S_'
GPGPU-Sim uArch: core:  5, cta: 0 initialized @(1,0)
GPGPU-Sim uArch: Shader 6 bind to kernel 1 '_Z17executeFirstLayerPfS_S_'
GPGPU-Sim uArch: core:  6, cta: 0 initialized @(1,0)
GPGPU-Sim uArch: Shader 7 bind to kernel 1 '_Z17executeFirstLayerPfS_S_'
GPGPU-Sim uArch: core:  7, cta: 0 initialized @(1,0)
GPGPU-Sim uArch: Shader 8 bind to kernel 1 '_Z17executeFirstLayerPfS_S_'
GPGPU-Sim uArch: core:  8, cta: 0 initialized @(1,0)
GPGPU-Sim uArch: Shader 9 bind to kernel 1 '_Z17executeFirstLayerPfS_S_'
GPGPU-Sim uArch: core:  9, cta: 0 initialized @(1,0)
GPGPU-Sim uArch: Shader 10 bind to kernel 1 '_Z17executeFirstLayerPfS_S_'
GPGPU-Sim uArch: core: 10, cta: 0 initialized @(1,0)
GPGPU-Sim uArch: Shader 11 bind to kernel 1 '_Z17executeFirstLayerPfS_S_'
GPGPU-Sim uArch: core: 11, cta: 0 initialized @(1,0)
GPGPU-Sim uArch: Shader 12 bind to kernel 1 '_Z17executeFirstLayerPfS_S_'
GPGPU-Sim uArch: core: 12, cta: 0 initialized @(1,0)
GPGPU-Sim uArch: Shader 13 bind to kernel 1 '_Z17executeFirstLayerPfS_S_'
GPGPU-Sim uArch: core: 13, cta: 0 initialized @(1,0)
GPGPU-Sim uArch: Shader 14 bind to kernel 1 '_Z17executeFirstLayerPfS_S_'
GPGPU-Sim uArch: core: 14, cta: 0 initialized @(1,0)
GPGPU-Sim uArch: Shader 0 bind to kernel 1 '_Z17executeFirstLayerPfS_S_'
GPGPU-Sim uArch: core:  0, cta: 0 initialized @(1,0)
GPGPU-Sim uArch: core:  1, cta: 1 initialized @(2,0)
GPGPU-Sim uArch: core:  2, cta: 1 initialized @(2,0)
GPGPU-Sim uArch: core:  3, cta: 1 initialized @(2,0)
GPGPU-Sim uArch: core:  4, cta: 1 initialized @(2,0)
GPGPU-Sim uArch: core:  5, cta: 1 initialized @(2,0)
GPGPU-Sim uArch: core:  6, cta: 1 initialized @(2,0)
GPGPU-Sim uArch: core:  7, cta: 1 initialized @(2,0)
GPGPU-Sim uArch: core:  8, cta: 1 initialized @(2,0)
GPGPU-Sim uArch: core:  9, cta: 1 initialized @(2,0)
GPGPU-Sim uArch: core: 10, cta: 1 initialized @(2,0)
GPGPU-Sim uArch: core: 11, cta: 1 initialized @(2,0)
GPGPU-Sim uArch: core: 12, cta: 1 initialized @(2,0)
GPGPU-Sim uArch: core: 13, cta: 1 initialized @(2,0)
GPGPU-Sim uArch: core: 14, cta: 1 initialized @(2,0)
GPGPU-Sim uArch: core:  0, cta: 1 initialized @(2,0)
GPGPU-Sim uArch: core:  1, cta: 2 initialized @(3,0)
GPGPU-Sim uArch: core:  2, cta: 2 initialized @(3,0)
GPGPU-Sim uArch: core:  3, cta: 2 initialized @(3,0)
GPGPU-Sim uArch: core:  4, cta: 2 initialized @(3,0)
GPGPU-Sim uArch: core:  5, cta: 2 initialized @(3,0)
GPGPU-Sim uArch: core:  6, cta: 2 initialized @(3,0)
GPGPU-Sim uArch: core:  7, cta: 2 initialized @(3,0)
GPGPU-Sim uArch: core:  8, cta: 2 initialized @(3,0)
GPGPU-Sim uArch: core:  9, cta: 2 initialized @(3,0)
GPGPU-Sim uArch: core: 10, cta: 2 initialized @(3,0)
GPGPU-Sim uArch: core: 11, cta: 2 initialized @(3,0)
GPGPU-Sim uArch: core: 12, cta: 2 initialized @(3,0)
GPGPU-Sim uArch: core: 13, cta: 2 initialized @(3,0)
GPGPU-Sim uArch: core: 14, cta: 2 initialized @(3,0)
GPGPU-Sim uArch: core:  0, cta: 2 initialized @(3,0)
GPGPU-Sim uArch: core:  1, cta: 3 initialized @(4,0)
GPGPU-Sim uArch: core:  2, cta: 3 initialized @(4,0)
GPGPU-Sim uArch: core:  3, cta: 3 initialized @(4,0)
GPGPU-Sim uArch: core:  4, cta: 3 initialized @(4,0)
GPGPU-Sim uArch: core:  5, cta: 3 initialized @(4,0)
GPGPU-Sim uArch: core:  6, cta: 3 initialized @(4,0)
GPGPU-Sim uArch: core:  7, cta: 3 initialized @(4,0)
GPGPU-Sim uArch: core:  8, cta: 3 initialized @(4,0)
GPGPU-Sim uArch: core:  9, cta: 3 initialized @(4,0)
GPGPU-Sim uArch: core: 10, cta: 3 initialized @(4,0)
GPGPU-Sim uArch: core: 11, cta: 3 initialized @(4,0)
GPGPU-Sim uArch: core: 12, cta: 3 initialized @(4,0)
GPGPU-Sim uArch: core: 13, cta: 3 initialized @(4,0)
GPGPU-Sim uArch: core: 14, cta: 3 initialized @(4,0)
GPGPU-Sim uArch: core:  0, cta: 3 initialized @(4,0)
GPGPU-Sim uArch: core:  1, cta: 4 initialized @(5,0)
GPGPU-Sim uArch: core:  2, cta: 4 initialized @(5,0)
GPGPU-Sim uArch: core:  3, cta: 4 initialized @(5,0)
GPGPU-Sim uArch: core:  4, cta: 4 initialized @(5,0)
GPGPU-Sim uArch: core:  5, cta: 4 initialized @(5,0)
GPGPU-Sim uArch: core:  6, cta: 4 initialized @(5,0)
GPGPU-Sim uArch: core:  7, cta: 4 initialized @(5,0)
GPGPU-Sim uArch: core:  8, cta: 4 initialized @(5,0)
GPGPU-Sim uArch: core:  9, cta: 4 initialized @(5,0)
GPGPU-Sim uArch: core: 10, cta: 4 initialized @(5,0)
GPGPU-Sim uArch: core: 11, cta: 4 initialized @(5,0)
GPGPU-Sim uArch: core: 12, cta: 4 initialized @(5,0)
GPGPU-Sim uArch: core: 13, cta: 4 initialized @(5,0)
GPGPU-Sim uArch: core: 14, cta: 4 initialized @(5,0)
GPGPU-Sim uArch: core:  0, cta: 4 initialized @(5,0)
GPGPU-Sim uArch: core:  1, cta: 5 initialized @(6,0)
GPGPU-Sim uArch: core:  2, cta: 5 initialized @(6,0)
GPGPU-Sim uArch: core:  3, cta: 5 initialized @(6,0)
GPGPU-Sim uArch: core:  4, cta: 5 initialized @(6,0)
GPGPU-Sim uArch: core:  5, cta: 5 initialized @(6,0)
GPGPU-Sim uArch: core:  6, cta: 5 initialized @(6,0)
GPGPU-Sim uArch: core:  7, cta: 5 initialized @(6,0)
GPGPU-Sim uArch: core:  8, cta: 5 initialized @(6,0)
GPGPU-Sim uArch: core:  9, cta: 5 initialized @(6,0)
GPGPU-Sim uArch: core: 10, cta: 5 initialized @(6,0)
GPGPU-Sim uArch: core: 11, cta: 5 initialized @(6,0)
GPGPU-Sim uArch: core: 12, cta: 5 initialized @(6,0)
GPGPU-Sim uArch: core: 13, cta: 5 initialized @(6,0)
GPGPU-Sim uArch: core: 14, cta: 5 initialized @(6,0)
GPGPU-Sim uArch: core:  0, cta: 5 initialized @(6,0)
GPGPU-Sim uArch: core:  1, cta: 6 initialized @(7,0)
GPGPU-Sim uArch: core:  2, cta: 6 initialized @(7,0)
GPGPU-Sim uArch: core:  3, cta: 6 initialized @(7,0)
GPGPU-Sim uArch: core:  4, cta: 6 initialized @(7,0)
GPGPU-Sim uArch: core:  5, cta: 6 initialized @(7,0)
GPGPU-Sim uArch: core:  6, cta: 6 initialized @(7,0)
GPGPU-Sim uArch: core:  7, cta: 6 initialized @(7,0)
GPGPU-Sim uArch: core:  8, cta: 6 initialized @(7,0)
GPGPU-Sim uArch: core:  9, cta: 6 initialized @(7,0)
GPGPU-Sim uArch: core: 10, cta: 6 initialized @(7,0)
GPGPU-Sim uArch: core: 11, cta: 6 initialized @(7,0)
GPGPU-Sim uArch: core: 12, cta: 6 initialized @(7,0)
GPGPU-Sim uArch: core: 13, cta: 6 initialized @(7,0)
GPGPU-Sim uArch: core: 14, cta: 6 initialized @(7,0)
GPGPU-Sim uArch: core:  0, cta: 6 initialized @(7,0)
GPGPU-Sim uArch: core:  1, cta: 7 initialized @(8,0)
GPGPU-Sim uArch: core:  2, cta: 7 initialized @(8,0)
GPGPU-Sim uArch: core:  3, cta: 7 initialized @(8,0)
GPGPU-Sim uArch: core:  4, cta: 7 initialized @(8,0)
GPGPU-Sim uArch: core:  5, cta: 7 initialized @(8,0)
GPGPU-Sim uArch: core:  6, cta: 7 initialized @(8,0)
GPGPU-Sim uArch: core:  7, cta: 7 initialized @(8,0)
GPGPU-Sim uArch: core:  8, cta: 7 initialized @(8,0)
GPGPU-Sim uArch: core:  9, cta: 7 initialized @(8,0)
GPGPU-Sim uArch: core: 10, cta: 7 initialized @(8,0)
GPGPU-Sim uArch: core: 11, cta: 7 initialized @(8,0)
GPGPU-Sim uArch: core: 12, cta: 7 initialized @(8,0)
GPGPU-Sim uArch: core: 13, cta: 7 initialized @(8,0)
GPGPU-Sim uArch: core: 14, cta: 7 initialized @(8,0)
GPGPU-Sim uArch: core:  0, cta: 7 initialized @(8,0)
GPGPU-Sim uArch: cycles simulated: 500  inst.: 61294 (ipc=122.6) sim_rate=20431 (inst/sec) elapsed = 0:0:00:03 / Fri May 15 01:24:52 2015
GPGPU-Sim PTX: 100000 instructions simulated : ctaid=(0,14,0) tid=(7,8,0)
GPGPU-Sim PTX: 200000 instructions simulated : ctaid=(0,6,0) tid=(3,12,0)
GPGPU-Sim uArch: cycles simulated: 1000  inst.: 219122 (ipc=219.1) sim_rate=36520 (inst/sec) elapsed = 0:0:00:06 / Fri May 15 01:24:55 2015
GPGPU-Sim PTX: 300000 instructions simulated : ctaid=(2,11,0) tid=(0,12,0)
GPGPU-Sim uArch: cycles simulated: 1500  inst.: 393045 (ipc=262.0) sim_rate=39304 (inst/sec) elapsed = 0:0:00:10 / Fri May 15 01:24:59 2015
GPGPU-Sim PTX: 400000 instructions simulated : ctaid=(2,10,0) tid=(4,11,0)
GPGPU-Sim uArch: cycles simulated: 2000  inst.: 404292 (ipc=202.1) sim_rate=31099 (inst/sec) elapsed = 0:0:00:13 / Fri May 15 01:25:02 2015
GPGPU-Sim uArch: cycles simulated: 2500  inst.: 434873 (ipc=173.9) sim_rate=27179 (inst/sec) elapsed = 0:0:00:16 / Fri May 15 01:25:05 2015
GPGPU-Sim PTX: 500000 instructions simulated : ctaid=(1,12,0) tid=(1,9,0)
GPGPU-Sim PTX: 600000 instructions simulated : ctaid=(3,4,0) tid=(6,12,0)
GPGPU-Sim uArch: cycles simulated: 3000  inst.: 615580 (ipc=205.2) sim_rate=30779 (inst/sec) elapsed = 0:0:00:20 / Fri May 15 01:25:09 2015
GPGPU-Sim PTX: 700000 instructions simulated : ctaid=(1,7,0) tid=(12,9,0)
GPGPU-Sim PTX: 800000 instructions simulated : ctaid=(4,5,0) tid=(8,6,0)
GPGPU-Sim uArch: cycles simulated: 3500  inst.: 843658 (ipc=241.0) sim_rate=36680 (inst/sec) elapsed = 0:0:00:23 / Fri May 15 01:25:12 2015
GPGPU-Sim PTX: 900000 instructions simulated : ctaid=(5,10,0) tid=(2,8,0)
GPGPU-Sim PTX: 1000000 instructions simulated : ctaid=(2,7,0) tid=(4,1,0)
GPGPU-Sim uArch: cycles simulated: 4000  inst.: 1074395 (ipc=268.6) sim_rate=39792 (inst/sec) elapsed = 0:0:00:27 / Fri May 15 01:25:16 2015
GPGPU-Sim PTX: 1100000 instructions simulated : ctaid=(0,12,0) tid=(10,8,0)
GPGPU-Sim PTX: 1200000 instructions simulated : ctaid=(2,5,0) tid=(9,11,0)
GPGPU-Sim PTX: 1300000 instructions simulated : ctaid=(1,10,0) tid=(9,9,0)
GPGPU-Sim uArch: cycles simulated: 4500  inst.: 1305293 (ipc=290.1) sim_rate=42106 (inst/sec) elapsed = 0:0:00:31 / Fri May 15 01:25:20 2015
GPGPU-Sim PTX: 1400000 instructions simulated : ctaid=(3,13,0) tid=(9,1,0)
GPGPU-Sim PTX: 1500000 instructions simulated : ctaid=(4,6,0) tid=(8,11,0)
GPGPU-Sim uArch: cycles simulated: 5000  inst.: 1536353 (ipc=307.3) sim_rate=43895 (inst/sec) elapsed = 0:0:00:35 / Fri May 15 01:25:24 2015
GPGPU-Sim PTX: 1600000 instructions simulated : ctaid=(5,14,0) tid=(11,0,0)
GPGPU-Sim PTX: 1700000 instructions simulated : ctaid=(0,10,0) tid=(3,10,0)
GPGPU-Sim uArch: cycles simulated: 5500  inst.: 1745074 (ipc=317.3) sim_rate=44745 (inst/sec) elapsed = 0:0:00:39 / Fri May 15 01:25:28 2015
GPGPU-Sim PTX: 1800000 instructions simulated : ctaid=(4,5,0) tid=(2,10,0)
GPGPU-Sim PTX: 1900000 instructions simulated : ctaid=(1,4,0) tid=(0,11,0)
GPGPU-Sim uArch: cycles simulated: 6000  inst.: 1926556 (ipc=321.1) sim_rate=45870 (inst/sec) elapsed = 0:0:00:42 / Fri May 15 01:25:31 2015
GPGPU-Sim PTX: 2000000 instructions simulated : ctaid=(1,10,0) tid=(9,5,0)
GPGPU-Sim PTX: 2100000 instructions simulated : ctaid=(4,5,0) tid=(5,2,0)
GPGPU-Sim uArch: cycles simulated: 6500  inst.: 2112717 (ipc=325.0) sim_rate=46949 (inst/sec) elapsed = 0:0:00:45 / Fri May 15 01:25:34 2015
GPGPU-Sim PTX: 2200000 instructions simulated : ctaid=(2,7,0) tid=(7,8,0)
GPGPU-Sim uArch: cycles simulated: 7000  inst.: 2289953 (ipc=327.1) sim_rate=47707 (inst/sec) elapsed = 0:0:00:48 / Fri May 15 01:25:37 2015
GPGPU-Sim PTX: 2300000 instructions simulated : ctaid=(4,2,0) tid=(4,10,0)
GPGPU-Sim PTX: 2400000 instructions simulated : ctaid=(3,7,0) tid=(6,1,0)
GPGPU-Sim uArch: cycles simulated: 7500  inst.: 2472597 (ipc=329.7) sim_rate=48482 (inst/sec) elapsed = 0:0:00:51 / Fri May 15 01:25:40 2015
GPGPU-Sim PTX: 2500000 instructions simulated : ctaid=(5,10,0) tid=(3,0,0)
GPGPU-Sim PTX: 2600000 instructions simulated : ctaid=(0,11,0) tid=(10,12,0)
GPGPU-Sim uArch: cycles simulated: 8000  inst.: 2659323 (ipc=332.4) sim_rate=49246 (inst/sec) elapsed = 0:0:00:54 / Fri May 15 01:25:43 2015
GPGPU-Sim PTX: 2700000 instructions simulated : ctaid=(5,7,0) tid=(11,7,0)
GPGPU-Sim PTX: 2800000 instructions simulated : ctaid=(3,7,0) tid=(9,11,0)
GPGPU-Sim uArch: cycles simulated: 8500  inst.: 2848629 (ipc=335.1) sim_rate=49975 (inst/sec) elapsed = 0:0:00:57 / Fri May 15 01:25:46 2015
GPGPU-Sim PTX: 2900000 instructions simulated : ctaid=(1,13,0) tid=(2,8,0)
GPGPU-Sim uArch: Shader 11 finished CTA #2 (8619,0), 7 CTAs running
GPGPU-Sim uArch: core: 11, cta: 2 initialized @(8620,0)
GPGPU-Sim uArch: Shader 6 finished CTA #4 (8758,0), 7 CTAs running
GPGPU-Sim uArch: core:  6, cta: 4 initialized @(8759,0)
GPGPU-Sim uArch: Shader 7 finished CTA #4 (8871,0), 7 CTAs running
GPGPU-Sim uArch: core:  7, cta: 4 initialized @(8872,0)
GPGPU-Sim PTX: 3000000 instructions simulated : ctaid=(5,12,0) tid=(12,10,0)
GPGPU-Sim uArch: cycles simulated: 9000  inst.: 3035184 (ipc=337.2) sim_rate=49757 (inst/sec) elapsed = 0:0:01:01 / Fri May 15 01:25:50 2015
GPGPU-Sim PTX: 3100000 instructions simulated : ctaid=(5,8,0) tid=(5,0,0)
GPGPU-Sim uArch: Shader 5 finished CTA #4 (9273,0), 7 CTAs running
GPGPU-Sim uArch: core:  5, cta: 4 initialized @(9274,0)
GPGPU-Sim uArch: Shader 0 finished CTA #2 (9335,0), 7 CTAs running
GPGPU-Sim uArch: core:  0, cta: 2 initialized @(9336,0)
GPGPU-Sim uArch: Shader 8 finished CTA #4 (9349,0), 7 CTAs running
GPGPU-Sim uArch: core:  8, cta: 4 initialized @(9350,0)
GPGPU-Sim PTX: 3200000 instructions simulated : ctaid=(1,20,0) tid=(0,5,0)
GPGPU-Sim uArch: cycles simulated: 9500  inst.: 3227267 (ipc=339.7) sim_rate=50426 (inst/sec) elapsed = 0:0:01:04 / Fri May 15 01:25:53 2015
GPGPU-Sim PTX: 3300000 instructions simulated : ctaid=(2,14,0) tid=(7,9,0)
GPGPU-Sim uArch: Shader 10 finished CTA #2 (9703,0), 7 CTAs running
GPGPU-Sim uArch: core: 10, cta: 2 initialized @(9704,0)
GPGPU-Sim PTX: 3400000 instructions simulated : ctaid=(5,8,0) tid=(12,0,0)
GPGPU-Sim uArch: cycles simulated: 10000  inst.: 3428404 (ipc=342.8) sim_rate=50417 (inst/sec) elapsed = 0:0:01:08 / Fri May 15 01:25:57 2015
GPGPU-Sim PTX: 3500000 instructions simulated : ctaid=(1,14,0) tid=(10,6,0)
GPGPU-Sim uArch: Shader 4 finished CTA #4 (10357,0), 7 CTAs running
GPGPU-Sim uArch: core:  4, cta: 4 initialized @(10358,0)
GPGPU-Sim PTX: 3600000 instructions simulated : ctaid=(4,20,0) tid=(2,11,0)
GPGPU-Sim uArch: cycles simulated: 10500  inst.: 3630981 (ipc=345.8) sim_rate=51140 (inst/sec) elapsed = 0:0:01:11 / Fri May 15 01:26:00 2015
GPGPU-Sim PTX: 3700000 instructions simulated : ctaid=(1,14,0) tid=(2,5,0)
GPGPU-Sim PTX: 3800000 instructions simulated : ctaid=(4,12,0) tid=(3,6,0)
GPGPU-Sim uArch: Shader 2 finished CTA #2 (10948,0), 7 CTAs running
GPGPU-Sim uArch: core:  2, cta: 2 initialized @(10949,0)
GPGPU-Sim uArch: cycles simulated: 11000  inst.: 3837479 (ipc=348.9) sim_rate=51166 (inst/sec) elapsed = 0:0:01:15 / Fri May 15 01:26:04 2015
GPGPU-Sim PTX: 3900000 instructions simulated : ctaid=(0,10,0) tid=(5,4,0)
GPGPU-Sim PTX: 4000000 instructions simulated : ctaid=(0,12,0) tid=(11,2,0)
GPGPU-Sim uArch: cycles simulated: 11500  inst.: 4046224 (ipc=351.8) sim_rate=51218 (inst/sec) elapsed = 0:0:01:19 / Fri May 15 01:26:08 2015
GPGPU-Sim uArch: Shader 3 finished CTA #2 (11542,0), 7 CTAs running
GPGPU-Sim uArch: core:  3, cta: 2 initialized @(11543,0)
GPGPU-Sim PTX: 4100000 instructions simulated : ctaid=(0,20,0) tid=(9,6,0)
GPGPU-Sim uArch: Shader 12 finished CTA #4 (11593,0), 7 CTAs running
GPGPU-Sim uArch: core: 12, cta: 4 initialized @(11594,0)
GPGPU-Sim uArch: Shader 1 finished CTA #4 (11594,0), 7 CTAs running
GPGPU-Sim uArch: core:  1, cta: 4 initialized @(11595,0)
GPGPU-Sim PTX: 4200000 instructions simulated : ctaid=(5,13,0) tid=(5,3,0)
GPGPU-Sim uArch: cycles simulated: 12000  inst.: 4253713 (ipc=354.5) sim_rate=51874 (inst/sec) elapsed = 0:0:01:22 / Fri May 15 01:26:11 2015
GPGPU-Sim uArch: Shader 14 finished CTA #4 (12036,0), 7 CTAs running
GPGPU-Sim uArch: core: 14, cta: 4 initialized @(12037,0)
GPGPU-Sim uArch: Shader 3 finished CTA #4 (12055,0), 7 CTAs running
GPGPU-Sim uArch: core:  3, cta: 4 initialized @(12056,0)
GPGPU-Sim PTX: 4300000 instructions simulated : ctaid=(1,6,0) tid=(9,4,0)
GPGPU-Sim uArch: Shader 13 finished CTA #4 (12147,0), 7 CTAs running
GPGPU-Sim uArch: core: 13, cta: 4 initialized @(12148,0)
GPGPU-Sim PTX: 4400000 instructions simulated : ctaid=(4,7,0) tid=(7,12,0)
GPGPU-Sim uArch: Shader 2 finished CTA #4 (12424,0), 7 CTAs running
GPGPU-Sim uArch: core:  2, cta: 4 initialized @(12425,0)
GPGPU-Sim uArch: cycles simulated: 12500  inst.: 4457749 (ipc=356.6) sim_rate=51834 (inst/sec) elapsed = 0:0:01:26 / Fri May 15 01:26:15 2015
GPGPU-Sim uArch: Shader 0 finished CTA #4 (12515,0), 7 CTAs running
GPGPU-Sim uArch: core:  0, cta: 4 initialized @(12516,0)
GPGPU-Sim PTX: 4500000 instructions simulated : ctaid=(2,20,0) tid=(8,1,0)
GPGPU-Sim uArch: Shader 13 finished CTA #3 (12717,0), 7 CTAs running
GPGPU-Sim uArch: core: 13, cta: 3 initialized @(12718,0)
GPGPU-Sim PTX: 4600000 instructions simulated : ctaid=(1,4,0) tid=(8,12,0)
GPGPU-Sim uArch: Shader 11 finished CTA #4 (12818,0), 7 CTAs running
GPGPU-Sim uArch: core: 11, cta: 4 initialized @(12819,0)
GPGPU-Sim uArch: cycles simulated: 13000  inst.: 4662858 (ipc=358.7) sim_rate=51809 (inst/sec) elapsed = 0:0:01:30 / Fri May 15 01:26:19 2015
GPGPU-Sim PTX: 4700000 instructions simulated : ctaid=(5,22,0) tid=(7,8,0)
GPGPU-Sim uArch: Shader 10 finished CTA #4 (13245,0), 7 CTAs running
GPGPU-Sim uArch: core: 10, cta: 4 initialized @(13246,0)
GPGPU-Sim uArch: Shader 14 finished CTA #3 (13257,0), 7 CTAs running
GPGPU-Sim uArch: core: 14, cta: 3 initialized @(13258,0)
GPGPU-Sim PTX: 4800000 instructions simulated : ctaid=(1,21,0) tid=(10,6,0)
GPGPU-Sim uArch: cycles simulated: 13500  inst.: 4859161 (ipc=359.9) sim_rate=51693 (inst/sec) elapsed = 0:0:01:34 / Fri May 15 01:26:23 2015
GPGPU-Sim PTX: 4900000 instructions simulated : ctaid=(1,22,0) tid=(3,12,0)
GPGPU-Sim PTX: 5000000 instructions simulated : ctaid=(0,15,0) tid=(8,7,0)
GPGPU-Sim uArch: Shader 9 finished CTA #5 (13842,0), 7 CTAs running
GPGPU-Sim uArch: core:  9, cta: 5 initialized @(13843,0)
GPGPU-Sim uArch: Shader 4 finished CTA #2 (13949,0), 7 CTAs running
GPGPU-Sim uArch: core:  4, cta: 2 initialized @(13950,0)
GPGPU-Sim uArch: cycles simulated: 14000  inst.: 5067506 (ipc=362.0) sim_rate=51709 (inst/sec) elapsed = 0:0:01:38 / Fri May 15 01:26:27 2015
GPGPU-Sim PTX: 5100000 instructions simulated : ctaid=(4,21,0) tid=(7,8,0)
GPGPU-Sim PTX: 5200000 instructions simulated : ctaid=(5,22,0) tid=(0,4,0)
GPGPU-Sim uArch: Shader 9 finished CTA #2 (14445,0), 7 CTAs running
GPGPU-Sim uArch: core:  9, cta: 2 initialized @(14446,0)
GPGPU-Sim PTX: 5300000 instructions simulated : ctaid=(3,21,0) tid=(12,2,0)
GPGPU-Sim uArch: cycles simulated: 14500  inst.: 5281579 (ipc=364.2) sim_rate=51780 (inst/sec) elapsed = 0:0:01:42 / Fri May 15 01:26:31 2015
GPGPU-Sim PTX: 5400000 instructions simulated : ctaid=(3,3,0) tid=(2,8,0)
GPGPU-Sim uArch: Shader 6 finished CTA #4 (14888,0), 7 CTAs running
GPGPU-Sim uArch: core:  6, cta: 4 initialized @(14889,0)
GPGPU-Sim PTX: 5500000 instructions simulated : ctaid=(0,22,0) tid=(10,4,0)
GPGPU-Sim uArch: cycles simulated: 15000  inst.: 5491443 (ipc=366.1) sim_rate=51806 (inst/sec) elapsed = 0:0:01:46 / Fri May 15 01:26:35 2015
GPGPU-Sim uArch: Shader 14 finished CTA #2 (15077,0), 7 CTAs running
GPGPU-Sim uArch: core: 14, cta: 2 initialized @(15078,0)
GPGPU-Sim PTX: 5600000 instructions simulated : ctaid=(4,23,0) tid=(7,0,0)
GPGPU-Sim PTX: 5700000 instructions simulated : ctaid=(4,21,0) tid=(10,7,0)
GPGPU-Sim uArch: Shader 1 finished CTA #3 (15457,0), 7 CTAs running
GPGPU-Sim uArch: core:  1, cta: 3 initialized @(15458,0)
GPGPU-Sim uArch: cycles simulated: 15500  inst.: 5699264 (ipc=367.7) sim_rate=51811 (inst/sec) elapsed = 0:0:01:50 / Fri May 15 01:26:39 2015
GPGPU-Sim PTX: 5800000 instructions simulated : ctaid=(2,8,0) tid=(0,10,0)
GPGPU-Sim PTX: 5900000 instructions simulated : ctaid=(0,6,0) tid=(0,0,0)
GPGPU-Sim uArch: cycles simulated: 16000  inst.: 5898093 (ipc=368.6) sim_rate=51287 (inst/sec) elapsed = 0:0:01:55 / Fri May 15 01:26:44 2015
GPGPU-Sim uArch: Shader 8 finished CTA #2 (16082,0), 7 CTAs running
GPGPU-Sim uArch: core:  8, cta: 2 initialized @(16083,0)
GPGPU-Sim uArch: Shader 7 finished CTA #4 (16172,0), 7 CTAs running
GPGPU-Sim uArch: core:  7, cta: 4 initialized @(16173,0)
GPGPU-Sim PTX: 6000000 instructions simulated : ctaid=(0,1,0) tid=(1,0,0)
GPGPU-Sim uArch: Shader 13 finished CTA #2 (16300,0), 7 CTAs running
GPGPU-Sim uArch: core: 13, cta: 2 initialized @(16301,0)
GPGPU-Sim uArch: Shader 5 finished CTA #3 (16378,0), 7 CTAs running
GPGPU-Sim uArch: core:  5, cta: 3 initialized @(16379,0)
GPGPU-Sim uArch: Shader 12 finished CTA #3 (16453,0), 7 CTAs running
GPGPU-Sim uArch: core: 12, cta: 3 initialized @(16454,0)
GPGPU-Sim PTX: 6100000 instructions simulated : ctaid=(4,2,0) tid=(10,5,0)
GPGPU-Sim uArch: cycles simulated: 16500  inst.: 6094457 (ipc=369.4) sim_rate=51213 (inst/sec) elapsed = 0:0:01:59 / Fri May 15 01:26:48 2015
GPGPU-Sim uArch: Shader 2 finished CTA #3 (16611,0), 7 CTAs running
GPGPU-Sim uArch: core:  2, cta: 3 initialized @(16612,0)
GPGPU-Sim uArch: Shader 3 finished CTA #3 (16618,0), 7 CTAs running
GPGPU-Sim uArch: core:  3, cta: 3 initialized @(16619,0)
GPGPU-Sim PTX: 6200000 instructions simulated : ctaid=(0,3,0) tid=(0,11,0)
GPGPU-Sim uArch: Shader 4 finished CTA #3 (16776,0), 7 CTAs running
GPGPU-Sim uArch: core:  4, cta: 3 initialized @(16777,0)
GPGPU-Sim uArch: Shader 10 finished CTA #3 (16858,0), 7 CTAs running
GPGPU-Sim uArch: core: 10, cta: 3 initialized @(16859,0)
GPGPU-Sim uArch: Shader 0 finished CTA #2 (16867,0), 7 CTAs running
GPGPU-Sim uArch: core:  0, cta: 2 initialized @(16868,0)
GPGPU-Sim PTX: 6300000 instructions simulated : ctaid=(5,1,0) tid=(3,3,0)
GPGPU-Sim uArch: cycles simulated: 17000  inst.: 6297207 (ipc=370.4) sim_rate=50783 (inst/sec) elapsed = 0:0:02:04 / Fri May 15 01:26:53 2015
GPGPU-Sim uArch: Shader 5 finished CTA #4 (17054,0), 7 CTAs running
GPGPU-Sim uArch: core:  5, cta: 4 initialized @(17055,0)
GPGPU-Sim uArch: Shader 11 finished CTA #2 (17126,0), 7 CTAs running
GPGPU-Sim uArch: core: 11, cta: 2 initialized @(17127,0)
GPGPU-Sim PTX: 6400000 instructions simulated : ctaid=(1,1,0) tid=(12,8,0)
GPGPU-Sim uArch: Shader 7 finished CTA #2 (17306,0), 7 CTAs running
GPGPU-Sim uArch: core:  7, cta: 2 initialized @(17307,0)
GPGPU-Sim uArch: Shader 6 finished CTA #3 (17338,0), 7 CTAs running
GPGPU-Sim uArch: core:  6, cta: 3 initialized @(17339,0)
GPGPU-Sim uArch: Shader 7 finished CTA #3 (17374,0), 7 CTAs running
GPGPU-Sim uArch: core:  7, cta: 3 initialized @(17375,0)
GPGPU-Sim PTX: 6500000 instructions simulated : ctaid=(4,24,0) tid=(4,5,0)
GPGPU-Sim uArch: cycles simulated: 17500  inst.: 6510752 (ipc=372.0) sim_rate=50865 (inst/sec) elapsed = 0:0:02:08 / Fri May 15 01:26:57 2015
GPGPU-Sim PTX: 6600000 instructions simulated : ctaid=(0,26,0) tid=(4,11,0)
GPGPU-Sim PTX: 6700000 instructions simulated : ctaid=(1,25,0) tid=(2,1,0)
GPGPU-Sim uArch: cycles simulated: 18000  inst.: 6733671 (ipc=374.1) sim_rate=51012 (inst/sec) elapsed = 0:0:02:12 / Fri May 15 01:27:01 2015
GPGPU-Sim PTX: 6800000 instructions simulated : ctaid=(2,22,0) tid=(12,0,0)
GPGPU-Sim PTX: 6900000 instructions simulated : ctaid=(0,26,0) tid=(6,5,0)
GPGPU-Sim uArch: Shader 8 finished CTA #4 (18347,0), 7 CTAs running
GPGPU-Sim uArch: core:  8, cta: 4 initialized @(18348,0)
GPGPU-Sim uArch: cycles simulated: 18500  inst.: 6949964 (ipc=375.7) sim_rate=51102 (inst/sec) elapsed = 0:0:02:16 / Fri May 15 01:27:05 2015
GPGPU-Sim PTX: 7000000 instructions simulated : ctaid=(4,24,0) tid=(8,5,0)
GPGPU-Sim uArch: Shader 10 finished CTA #2 (18741,0), 7 CTAs running
GPGPU-Sim uArch: core: 10, cta: 2 initialized @(18742,0)
GPGPU-Sim uArch: Shader 12 finished CTA #2 (18749,0), 7 CTAs running
GPGPU-Sim uArch: core: 12, cta: 2 initialized @(18750,0)
GPGPU-Sim PTX: 7100000 instructions simulated : ctaid=(0,0,0) tid=(4,10,0)
GPGPU-Sim uArch: Shader 4 finished CTA #4 (18973,0), 7 CTAs running
GPGPU-Sim uArch: core:  4, cta: 4 initialized @(18974,0)
GPGPU-Sim uArch: cycles simulated: 19000  inst.: 7163507 (ipc=377.0) sim_rate=50805 (inst/sec) elapsed = 0:0:02:21 / Fri May 15 01:27:10 2015
GPGPU-Sim PTX: 7200000 instructions simulated : ctaid=(5,24,0) tid=(9,1,0)
GPGPU-Sim PTX: 7300000 instructions simulated : ctaid=(2,24,0) tid=(8,3,0)
GPGPU-Sim uArch: cycles simulated: 19500  inst.: 7372999 (ipc=378.1) sim_rate=50848 (inst/sec) elapsed = 0:0:02:25 / Fri May 15 01:27:14 2015
GPGPU-Sim PTX: 7400000 instructions simulated : ctaid=(2,27,0) tid=(8,11,0)
GPGPU-Sim uArch: Shader 1 finished CTA #4 (19545,0), 7 CTAs running
GPGPU-Sim uArch: core:  1, cta: 4 initialized @(19546,0)
GPGPU-Sim uArch: Shader 0 finished CTA #3 (19689,0), 7 CTAs running
GPGPU-Sim uArch: core:  0, cta: 3 initialized @(19690,0)
GPGPU-Sim PTX: 7500000 instructions simulated : ctaid=(5,24,0) tid=(11,8,0)
GPGPU-Sim PTX: 7600000 instructions simulated : ctaid=(1,0,0) tid=(1,5,0)
GPGPU-Sim uArch: cycles simulated: 20000  inst.: 7575700 (ipc=378.8) sim_rate=50843 (inst/sec) elapsed = 0:0:02:29 / Fri May 15 01:27:18 2015
GPGPU-Sim uArch: Shader 3 finished CTA #4 (20058,0), 7 CTAs running
GPGPU-Sim uArch: Shader 2 finished CTA #4 (20210,0), 7 CTAs running
GPGPU-Sim PTX: 7700000 instructions simulated : ctaid=(4,27,0) tid=(1,12,0)
GPGPU-Sim uArch: cycles simulated: 20500  inst.: 7767926 (ipc=378.9) sim_rate=50441 (inst/sec) elapsed = 0:0:02:34 / Fri May 15 01:27:23 2015
GPGPU-Sim PTX: 7800000 instructions simulated : ctaid=(0,2,0) tid=(4,5,0)
GPGPU-Sim uArch: Shader 9 finished CTA #4 (20581,0), 7 CTAs running
GPGPU-Sim PTX: 7900000 instructions simulated : ctaid=(0,27,0) tid=(4,4,0)
GPGPU-Sim uArch: cycles simulated: 21000  inst.: 7959573 (ipc=379.0) sim_rate=50377 (inst/sec) elapsed = 0:0:02:38 / Fri May 15 01:27:27 2015
GPGPU-Sim PTX: 8000000 instructions simulated : ctaid=(1,27,0) tid=(11,5,0)
GPGPU-Sim uArch: Shader 11 finished CTA #4 (21256,0), 7 CTAs running
GPGPU-Sim PTX: 8100000 instructions simulated : ctaid=(5,27,0) tid=(3,5,0)
GPGPU-Sim uArch: Shader 3 finished CTA #2 (21478,0), 6 CTAs running
GPGPU-Sim uArch: cycles simulated: 21500  inst.: 8158297 (ipc=379.5) sim_rate=50359 (inst/sec) elapsed = 0:0:02:42 / Fri May 15 01:27:31 2015
GPGPU-Sim PTX: 8200000 instructions simulated : ctaid=(5,3,0) tid=(11,0,0)
GPGPU-Sim uArch: Shader 3 finished CTA #3 (21539,0), 5 CTAs running
GPGPU-Sim PTX: 8300000 instructions simulated : ctaid=(3,2,0) tid=(1,5,0)
GPGPU-Sim uArch: Shader 9 finished CTA #2 (21957,0), 6 CTAs running
GPGPU-Sim uArch: cycles simulated: 22000  inst.: 8359476 (ipc=380.0) sim_rate=50358 (inst/sec) elapsed = 0:0:02:46 / Fri May 15 01:27:35 2015
GPGPU-Sim PTX: 8400000 instructions simulated : ctaid=(1,13,0) tid=(8,4,0)
GPGPU-Sim uArch: Shader 2 finished CTA #3 (22236,0), 6 CTAs running
GPGPU-Sim PTX: 8500000 instructions simulated : ctaid=(5,4,0) tid=(10,12,0)
GPGPU-Sim uArch: Shader 10 finished CTA #4 (22475,0), 7 CTAs running
GPGPU-Sim uArch: Shader 14 finished CTA #2 (22475,0), 7 CTAs running
GPGPU-Sim uArch: cycles simulated: 22500  inst.: 8549825 (ipc=380.0) sim_rate=50293 (inst/sec) elapsed = 0:0:02:50 / Fri May 15 01:27:39 2015
GPGPU-Sim PTX: 8600000 instructions simulated : ctaid=(3,27,0) tid=(5,9,0)
GPGPU-Sim uArch: Shader 2 finished CTA #2 (22588,0), 5 CTAs running
GPGPU-Sim uArch: Shader 9 finished CTA #3 (22673,0), 5 CTAs running
GPGPU-Sim uArch: Shader 9 finished CTA #5 (22731,0), 4 CTAs running
GPGPU-Sim uArch: Shader 13 finished CTA #2 (22773,0), 7 CTAs running
GPGPU-Sim PTX: 8700000 instructions simulated : ctaid=(1,2,0) tid=(5,5,0)
GPGPU-Sim uArch: cycles simulated: 23000  inst.: 8729359 (ipc=379.5) sim_rate=50458 (inst/sec) elapsed = 0:0:02:53 / Fri May 15 01:27:42 2015
GPGPU-Sim uArch: Shader 6 finished CTA #4 (23019,0), 7 CTAs running
GPGPU-Sim uArch: Shader 11 finished CTA #3 (23088,0), 6 CTAs running
GPGPU-Sim PTX: 8800000 instructions simulated : ctaid=(0,4,0) tid=(6,4,0)
GPGPU-Sim uArch: Shader 12 finished CTA #4 (23238,0), 7 CTAs running
GPGPU-Sim PTX: 8900000 instructions simulated : ctaid=(3,16,0) tid=(7,9,0)
GPGPU-Sim uArch: cycles simulated: 23500  inst.: 8907607 (ipc=379.0) sim_rate=50325 (inst/sec) elapsed = 0:0:02:57 / Fri May 15 01:27:46 2015
GPGPU-Sim PTX: 9000000 instructions simulated : ctaid=(3,1,0) tid=(12,5,0)
GPGPU-Sim uArch: Shader 9 finished CTA #1 (23764,0), 3 CTAs running
GPGPU-Sim uArch: Shader 8 finished CTA #2 (23907,0), 7 CTAs running
GPGPU-Sim PTX: 9100000 instructions simulated : ctaid=(2,14,0) tid=(12,12,0)
GPGPU-Sim uArch: cycles simulated: 24000  inst.: 9090515 (ipc=378.8) sim_rate=50502 (inst/sec) elapsed = 0:0:03:00 / Fri May 15 01:27:49 2015
GPGPU-Sim uArch: Shader 13 finished CTA #3 (24024,0), 6 CTAs running
GPGPU-Sim uArch: Shader 14 finished CTA #3 (24045,0), 6 CTAs running
GPGPU-Sim PTX: 9200000 instructions simulated : ctaid=(0,3,0) tid=(7,12,0)
GPGPU-Sim uArch: Shader 1 finished CTA #3 (24353,0), 7 CTAs running
GPGPU-Sim uArch: Shader 11 finished CTA #2 (24459,0), 5 CTAs running
GPGPU-Sim PTX: 9300000 instructions simulated : ctaid=(2,13,0) tid=(4,4,0)
GPGPU-Sim uArch: cycles simulated: 24500  inst.: 9281942 (ipc=378.9) sim_rate=50720 (inst/sec) elapsed = 0:0:03:03 / Fri May 15 01:27:52 2015
GPGPU-Sim uArch: Shader 8 finished CTA #4 (24513,0), 6 CTAs running
GPGPU-Sim uArch: Shader 10 finished CTA #2 (24576,0), 6 CTAs running
GPGPU-Sim uArch: Shader 4 finished CTA #4 (24619,0), 7 CTAs running
GPGPU-Sim uArch: Shader 0 finished CTA #2 (24673,0), 7 CTAs running
GPGPU-Sim uArch: Shader 14 finished CTA #4 (24709,0), 5 CTAs running
GPGPU-Sim PTX: 9400000 instructions simulated : ctaid=(5,18,0) tid=(3,1,0)
GPGPU-Sim uArch: Shader 8 finished CTA #3 (24720,0), 5 CTAs running
GPGPU-Sim uArch: Shader 12 finished CTA #2 (24806,0), 6 CTAs running
GPGPU-Sim PTX: 9500000 instructions simulated : ctaid=(1,15,0) tid=(3,7,0)
GPGPU-Sim uArch: cycles simulated: 25000  inst.: 9484669 (ipc=379.4) sim_rate=50720 (inst/sec) elapsed = 0:0:03:07 / Fri May 15 01:27:56 2015
GPGPU-Sim uArch: Shader 14 finished CTA #0 (25005,0), 4 CTAs running
GPGPU-Sim PTX: 9600000 instructions simulated : ctaid=(0,14,0) tid=(2,3,0)
GPGPU-Sim uArch: Shader 5 finished CTA #4 (25294,0), 7 CTAs running
GPGPU-Sim uArch: Shader 1 finished CTA #4 (25385,0), 6 CTAs running
GPGPU-Sim PTX: 9700000 instructions simulated : ctaid=(0,15,0) tid=(2,5,0)
GPGPU-Sim uArch: Shader 4 finished CTA #3 (25450,0), 6 CTAs running
GPGPU-Sim uArch: Shader 5 finished CTA #1 (25466,0), 6 CTAs running
GPGPU-Sim uArch: Shader 13 finished CTA #4 (25474,0), 5 CTAs running
GPGPU-Sim uArch: cycles simulated: 25500  inst.: 9692583 (ipc=380.1) sim_rate=51013 (inst/sec) elapsed = 0:0:03:10 / Fri May 15 01:27:59 2015
GPGPU-Sim uArch: Shader 6 finished CTA #2 (25555,0), 6 CTAs running
GPGPU-Sim uArch: Shader 0 finished CTA #4 (25628,0), 6 CTAs running
GPGPU-Sim uArch: Shader 13 finished CTA #0 (25668,0), 4 CTAs running
GPGPU-Sim uArch: Shader 6 finished CTA #3 (25672,0), 5 CTAs running
GPGPU-Sim PTX: 9800000 instructions simulated : ctaid=(1,17,0) tid=(7,5,0)
GPGPU-Sim uArch: Shader 5 finished CTA #0 (25702,0), 5 CTAs running
GPGPU-Sim PTX: 9900000 instructions simulated : ctaid=(5,18,0) tid=(1,2,0)
GPGPU-Sim uArch: cycles simulated: 26000  inst.: 9898316 (ipc=380.7) sim_rate=51022 (inst/sec) elapsed = 0:0:03:14 / Fri May 15 01:28:03 2015
GPGPU-Sim PTX: 10000000 instructions simulated : ctaid=(0,17,0) tid=(1,4,0)
GPGPU-Sim uArch: Shader 5 finished CTA #3 (26220,0), 4 CTAs running
GPGPU-Sim uArch: Shader 6 finished CTA #1 (26230,0), 4 CTAs running
GPGPU-Sim uArch: Shader 1 finished CTA #5 (26243,0), 5 CTAs running
GPGPU-Sim uArch: Shader 14 finished CTA #5 (26261,0), 3 CTAs running
GPGPU-Sim uArch: Shader 7 finished CTA #4 (26389,0), 7 CTAs running
GPGPU-Sim PTX: 10100000 instructions simulated : ctaid=(5,4,0) tid=(4,0,0)
GPGPU-Sim uArch: Shader 10 finished CTA #3 (26461,0), 5 CTAs running
GPGPU-Sim uArch: cycles simulated: 26500  inst.: 10095005 (ipc=380.9) sim_rate=51243 (inst/sec) elapsed = 0:0:03:17 / Fri May 15 01:28:06 2015
GPGPU-Sim uArch: Shader 4 finished CTA #2 (26500,0), 5 CTAs running
GPGPU-Sim uArch: Shader 5 finished CTA #2 (26677,0), 3 CTAs running
GPGPU-Sim PTX: 10200000 instructions simulated : ctaid=(2,13,0) tid=(5,3,0)
GPGPU-Sim uArch: Shader 6 finished CTA #0 (26679,0), 3 CTAs running
GPGPU-Sim uArch: Shader 11 finished CTA #0 (26792,0), 4 CTAs running
GPGPU-Sim uArch: Shader 9 finished CTA #0 (26805,0), 2 CTAs running
GPGPU-Sim uArch: Shader 12 finished CTA #3 (26855,0), 5 CTAs running
GPGPU-Sim uArch: Shader 1 finished CTA #1 (26867,0), 4 CTAs running
GPGPU-Sim uArch: Shader 2 finished CTA #5 (26938,0), 4 CTAs running
GPGPU-Sim PTX: 10300000 instructions simulated : ctaid=(3,17,0) tid=(6,0,0)
GPGPU-Sim uArch: Shader 8 finished CTA #5 (26974,0), 4 CTAs running
GPGPU-Sim uArch: cycles simulated: 27000  inst.: 10286998 (ipc=381.0) sim_rate=51434 (inst/sec) elapsed = 0:0:03:20 / Fri May 15 01:28:09 2015
GPGPU-Sim uArch: Shader 13 finished CTA #5 (27012,0), 3 CTAs running
GPGPU-Sim uArch: Shader 6 finished CTA #5 (27015,0), 2 CTAs running
GPGPU-Sim uArch: Shader 5 finished CTA #5 (27174,0), 2 CTAs running
GPGPU-Sim PTX: 10400000 instructions simulated : ctaid=(1,18,0) tid=(7,2,0)
GPGPU-Sim uArch: Shader 11 finished CTA #1 (27215,0), 3 CTAs running
GPGPU-Sim uArch: Shader 7 finished CTA #2 (27252,0), 6 CTAs running
GPGPU-Sim uArch: Shader 8 finished CTA #0 (27280,0), 3 CTAs running
GPGPU-Sim uArch: Shader 1 finished CTA #0 (27366,0), 3 CTAs running
GPGPU-Sim uArch: Shader 13 finished CTA #1 (27391,0), 2 CTAs running
GPGPU-Sim uArch: Shader 9 finished CTA #6 (27436,0), 1 CTAs running
GPGPU-Sim PTX: 10500000 instructions simulated : ctaid=(0,16,0) tid=(0,8,0)
GPGPU-Sim uArch: cycles simulated: 27500  inst.: 10477273 (ipc=381.0) sim_rate=51612 (inst/sec) elapsed = 0:0:03:23 / Fri May 15 01:28:12 2015
GPGPU-Sim uArch: Shader 12 finished CTA #5 (27584,0), 4 CTAs running
GPGPU-Sim uArch: Shader 2 finished CTA #1 (27676,0), 3 CTAs running
GPGPU-Sim PTX: 10600000 instructions simulated : ctaid=(3,19,0) tid=(1,9,0)
GPGPU-Sim uArch: Shader 14 finished CTA #1 (27934,0), 2 CTAs running
GPGPU-Sim PTX: 10700000 instructions simulated : ctaid=(2,15,0) tid=(1,12,0)
GPGPU-Sim uArch: cycles simulated: 28000  inst.: 10671335 (ipc=381.1) sim_rate=51802 (inst/sec) elapsed = 0:0:03:26 / Fri May 15 01:28:15 2015
GPGPU-Sim PTX: 10800000 instructions simulated : ctaid=(0,16,0) tid=(10,1,0)
GPGPU-Sim uArch: Shader 12 finished CTA #0 (28482,0), 3 CTAs running
GPGPU-Sim PTX: 10900000 instructions simulated : ctaid=(3,16,0) tid=(4,4,0)
GPGPU-Sim uArch: cycles simulated: 28500  inst.: 10866305 (ipc=381.3) sim_rate=51991 (inst/sec) elapsed = 0:0:03:29 / Fri May 15 01:28:18 2015
GPGPU-Sim uArch: Shader 0 finished CTA #3 (28501,0), 5 CTAs running
GPGPU-Sim uArch: Shader 0 finished CTA #0 (28658,0), 4 CTAs running
GPGPU-Sim uArch: Shader 1 finished CTA #2 (28682,0), 2 CTAs running
GPGPU-Sim PTX: 11000000 instructions simulated : ctaid=(0,13,0) tid=(1,4,0)
GPGPU-Sim uArch: cycles simulated: 29000  inst.: 11049594 (ipc=381.0) sim_rate=51876 (inst/sec) elapsed = 0:0:03:33 / Fri May 15 01:28:22 2015
GPGPU-Sim PTX: 11100000 instructions simulated : ctaid=(2,17,0) tid=(10,8,0)
GPGPU-Sim uArch: Shader 3 finished CTA #0 (29102,0), 4 CTAs running
GPGPU-Sim uArch: Shader 3 finished CTA #5 (29162,0), 3 CTAs running
GPGPU-Sim uArch: Shader 3 finished CTA #1 (29281,0), 2 CTAs running
GPGPU-Sim PTX: 11200000 instructions simulated : ctaid=(3,3,0) tid=(2,6,0)
GPGPU-Sim uArch: Shader 0 finished CTA #1 (29348,0), 3 CTAs running
GPGPU-Sim uArch: Shader 10 finished CTA #5 (29353,0), 4 CTAs running
GPGPU-Sim uArch: cycles simulated: 29500  inst.: 11211510 (ipc=380.1) sim_rate=51905 (inst/sec) elapsed = 0:0:03:36 / Fri May 15 01:28:25 2015
GPGPU-Sim uArch: Shader 12 finished CTA #1 (29521,0), 2 CTAs running
GPGPU-Sim uArch: Shader 2 finished CTA #0 (29532,0), 2 CTAs running
GPGPU-Sim uArch: Shader 8 finished CTA #1 (29626,0), 2 CTAs running
GPGPU-Sim uArch: Shader 10 finished CTA #0 (29626,0), 3 CTAs running
GPGPU-Sim uArch: Shader 9 finished CTA #7 (29678,0), 0 CTAs running
GPGPU-Sim uArch: Shader 9 empty (release kernel 1 '_Z17executeFirstLayerPfS_S_').
GPGPU-Sim PTX: 11300000 instructions simulated : ctaid=(3,19,0) tid=(6,11,0)
GPGPU-Sim uArch: Shader 10 finished CTA #1 (29681,0), 2 CTAs running
GPGPU-Sim uArch: Shader 2 finished CTA #6 (29823,0), 1 CTAs running
GPGPU-Sim uArch: Shader 11 finished CTA #6 (29982,0), 2 CTAs running
GPGPU-Sim uArch: Shader 7 finished CTA #1 (29986,0), 5 CTAs running
GPGPU-Sim uArch: Shader 8 finished CTA #6 (29988,0), 1 CTAs running
GPGPU-Sim uArch: cycles simulated: 30000  inst.: 11338206 (ipc=377.9) sim_rate=51772 (inst/sec) elapsed = 0:0:03:39 / Fri May 15 01:28:28 2015
GPGPU-Sim uArch: Shader 7 finished CTA #3 (30063,0), 4 CTAs running
GPGPU-Sim uArch: Shader 5 finished CTA #6 (30090,0), 1 CTAs running
GPGPU-Sim PTX: 11400000 instructions simulated : ctaid=(0,18,0) tid=(7,5,0)
GPGPU-Sim uArch: Shader 14 finished CTA #6 (30114,0), 1 CTAs running
GPGPU-Sim uArch: Shader 13 finished CTA #6 (30135,0), 1 CTAs running
GPGPU-Sim uArch: Shader 4 finished CTA #1 (30139,0), 4 CTAs running
GPGPU-Sim uArch: Shader 11 finished CTA #5 (30196,0), 1 CTAs running
GPGPU-Sim uArch: Shader 6 finished CTA #6 (30201,0), 1 CTAs running
GPGPU-Sim uArch: Shader 12 finished CTA #6 (30446,0), 1 CTAs running
GPGPU-Sim uArch: Shader 1 finished CTA #6 (30470,0), 1 CTAs running
GPGPU-Sim uArch: cycles simulated: 30500  inst.: 11436356 (ipc=375.0) sim_rate=51748 (inst/sec) elapsed = 0:0:03:41 / Fri May 15 01:28:30 2015
GPGPU-Sim PTX: 11500000 instructions simulated : ctaid=(1,19,0) tid=(3,11,0)
GPGPU-Sim uArch: Shader 7 finished CTA #0 (30684,0), 3 CTAs running
GPGPU-Sim uArch: Shader 7 finished CTA #5 (30873,0), 2 CTAs running
GPGPU-Sim uArch: Shader 3 finished CTA #6 (30960,0), 1 CTAs running
GPGPU-Sim uArch: cycles simulated: 31000  inst.: 11514658 (ipc=371.4) sim_rate=51635 (inst/sec) elapsed = 0:0:03:43 / Fri May 15 01:28:32 2015
GPGPU-Sim uArch: Shader 0 finished CTA #5 (31341,0), 2 CTAs running
GPGPU-Sim PTX: 11600000 instructions simulated : ctaid=(0,18,0) tid=(6,5,0)
GPGPU-Sim uArch: Shader 5 finished CTA #7 (31396,0), 0 CTAs running
GPGPU-Sim uArch: Shader 5 empty (release kernel 1 '_Z17executeFirstLayerPfS_S_').
GPGPU-Sim uArch: cycles simulated: 31500  inst.: 11575393 (ipc=367.5) sim_rate=51446 (inst/sec) elapsed = 0:0:03:45 / Fri May 15 01:28:34 2015
GPGPU-Sim uArch: Shader 11 finished CTA #7 (31512,0), 0 CTAs running
GPGPU-Sim uArch: Shader 11 empty (release kernel 1 '_Z17executeFirstLayerPfS_S_').
GPGPU-Sim uArch: Shader 14 finished CTA #7 (31516,0), 0 CTAs running
GPGPU-Sim uArch: Shader 14 empty (release kernel 1 '_Z17executeFirstLayerPfS_S_').
GPGPU-Sim uArch: Shader 4 finished CTA #0 (31556,0), 3 CTAs running
GPGPU-Sim uArch: Shader 13 finished CTA #7 (31589,0), 0 CTAs running
GPGPU-Sim uArch: Shader 13 empty (release kernel 1 '_Z17executeFirstLayerPfS_S_').
GPGPU-Sim uArch: Shader 1 finished CTA #7 (31609,0), 0 CTAs running
GPGPU-Sim uArch: Shader 1 empty (release kernel 1 '_Z17executeFirstLayerPfS_S_').
GPGPU-Sim uArch: Shader 6 finished CTA #7 (31638,0), 0 CTAs running
GPGPU-Sim uArch: Shader 6 empty (release kernel 1 '_Z17executeFirstLayerPfS_S_').
GPGPU-Sim uArch: Shader 3 finished CTA #7 (31680,0), 0 CTAs running
GPGPU-Sim uArch: Shader 3 empty (release kernel 1 '_Z17executeFirstLayerPfS_S_').
GPGPU-Sim uArch: Shader 2 finished CTA #7 (31695,0), 0 CTAs running
GPGPU-Sim uArch: Shader 2 empty (release kernel 1 '_Z17executeFirstLayerPfS_S_').
GPGPU-Sim uArch: Shader 4 finished CTA #5 (31753,0), 2 CTAs running
GPGPU-Sim uArch: cycles simulated: 32000  inst.: 11621875 (ipc=363.2) sim_rate=51197 (inst/sec) elapsed = 0:0:03:47 / Fri May 15 01:28:36 2015
GPGPU-Sim uArch: Shader 12 finished CTA #7 (32012,0), 0 CTAs running
GPGPU-Sim uArch: Shader 12 empty (release kernel 1 '_Z17executeFirstLayerPfS_S_').
GPGPU-Sim uArch: Shader 8 finished CTA #7 (32078,0), 0 CTAs running
GPGPU-Sim uArch: Shader 8 empty (release kernel 1 '_Z17executeFirstLayerPfS_S_').
GPGPU-Sim uArch: Shader 4 finished CTA #6 (32122,0), 1 CTAs running
GPGPU-Sim uArch: Shader 10 finished CTA #6 (32241,0), 1 CTAs running
GPGPU-Sim uArch: Shader 7 finished CTA #6 (32468,0), 1 CTAs running
GPGPU-Sim PTX: 11700000 instructions simulated : ctaid=(3,18,0) tid=(1,8,0)
GPGPU-Sim uArch: cycles simulated: 33000  inst.: 11676841 (ipc=353.8) sim_rate=51214 (inst/sec) elapsed = 0:0:03:48 / Fri May 15 01:28:37 2015
GPGPU-Sim uArch: Shader 0 finished CTA #6 (33106,0), 1 CTAs running
GPGPU-Sim uArch: Shader 10 finished CTA #7 (33581,0), 0 CTAs running
GPGPU-Sim uArch: Shader 10 empty (release kernel 1 '_Z17executeFirstLayerPfS_S_').
GPGPU-Sim uArch: Shader 0 finished CTA #7 (33965,0), 0 CTAs running
GPGPU-Sim uArch: Shader 0 empty (release kernel 1 '_Z17executeFirstLayerPfS_S_').
GPGPU-Sim uArch: cycles simulated: 34000  inst.: 11693363 (ipc=343.9) sim_rate=51062 (inst/sec) elapsed = 0:0:03:49 / Fri May 15 01:28:38 2015
GPGPU-Sim uArch: Shader 7 finished CTA #7 (34331,0), 0 CTAs running
GPGPU-Sim uArch: Shader 7 empty (release kernel 1 '_Z17executeFirstLayerPfS_S_').
GPGPU-Sim uArch: Shader 4 finished CTA #7 (34384,0), 0 CTAs running
GPGPU-Sim uArch: Shader 4 empty (release kernel 1 '_Z17executeFirstLayerPfS_S_').
GPGPU-Sim uArch: GPU detected kernel '_Z17executeFirstLayerPfS_S_' finished on shader 4.
kernel_name = _Z17executeFirstLayerPfS_S_ 
kernel_launch_uid = 1 
gpu_sim_cycle = 34385
gpu_sim_insn = 11694074
gpu_ipc =     340.0923
gpu_tot_sim_cycle = 34385
gpu_tot_sim_insn = 11694074
gpu_tot_ipc =     340.0923
gpu_tot_issued_cta = 0
gpu_stall_dramfull = 8692
gpu_stall_icnt2sh    = 13217
gpu_total_sim_rate=51065

========= Core cache stats =========
L1I_cache:
	L1I_total_cache_accesses = 244971
	L1I_total_cache_misses = 1091
	L1I_total_cache_miss_rate = 0.0045
	L1I_total_cache_pending_hits = 0
	L1I_total_cache_reservation_fails = 4140
L1D_cache:
	L1D_cache_core[0]: Access = 10218, Miss = 541, Miss_rate = 0.053, Pending_hits = 78, Reservation_fails = 1266
	L1D_cache_core[1]: Access = 9419, Miss = 495, Miss_rate = 0.053, Pending_hits = 70, Reservation_fails = 1084
	L1D_cache_core[2]: Access = 9378, Miss = 504, Miss_rate = 0.054, Pending_hits = 54, Reservation_fails = 1125
	L1D_cache_core[3]: Access = 9376, Miss = 529, Miss_rate = 0.056, Pending_hits = 88, Reservation_fails = 1289
	L1D_cache_core[4]: Access = 10254, Miss = 526, Miss_rate = 0.051, Pending_hits = 65, Reservation_fails = 1143
	L1D_cache_core[5]: Access = 9368, Miss = 474, Miss_rate = 0.051, Pending_hits = 66, Reservation_fails = 1157
	L1D_cache_core[6]: Access = 9388, Miss = 496, Miss_rate = 0.053, Pending_hits = 76, Reservation_fails = 1211
	L1D_cache_core[7]: Access = 10206, Miss = 522, Miss_rate = 0.051, Pending_hits = 89, Reservation_fails = 1412
	L1D_cache_core[8]: Access = 9405, Miss = 487, Miss_rate = 0.052, Pending_hits = 81, Reservation_fails = 1484
	L1D_cache_core[9]: Access = 8512, Miss = 394, Miss_rate = 0.046, Pending_hits = 70, Reservation_fails = 1367
	L1D_cache_core[10]: Access = 10221, Miss = 519, Miss_rate = 0.051, Pending_hits = 63, Reservation_fails = 1038
	L1D_cache_core[11]: Access = 9341, Miss = 522, Miss_rate = 0.056, Pending_hits = 78, Reservation_fails = 1433
	L1D_cache_core[12]: Access = 9369, Miss = 543, Miss_rate = 0.058, Pending_hits = 91, Reservation_fails = 1811
	L1D_cache_core[13]: Access = 9366, Miss = 495, Miss_rate = 0.053, Pending_hits = 77, Reservation_fails = 1274
	L1D_cache_core[14]: Access = 9381, Miss = 515, Miss_rate = 0.055, Pending_hits = 62, Reservation_fails = 1048
	L1D_total_cache_accesses = 143202
	L1D_total_cache_misses = 7562
	L1D_total_cache_miss_rate = 0.0528
	L1D_total_cache_pending_hits = 1108
	L1D_total_cache_reservation_fails = 19142
	L1D_cache_data_port_util = 0.279
	L1D_cache_fill_port_util = 0.012
L1C_cache:
	L1C_total_cache_accesses = 28224
	L1C_total_cache_misses = 987
	L1C_total_cache_miss_rate = 0.0350
	L1C_total_cache_pending_hits = 0
	L1C_total_cache_reservation_fails = 2774
L1T_cache:
	L1T_total_cache_accesses = 0
	L1T_total_cache_misses = 0
	L1T_total_cache_pending_hits = 0
	L1T_total_cache_reservation_fails = 0

Total_core_cache_stats:
	Total_core_cache_stats_breakdown[GLOBAL_ACC_R][HIT] = 134532
	Total_core_cache_stats_breakdown[GLOBAL_ACC_R][HIT_RESERVED] = 1108
	Total_core_cache_stats_breakdown[GLOBAL_ACC_R][MISS] = 5702
	Total_core_cache_stats_breakdown[GLOBAL_ACC_R][RESERVATION_FAIL] = 19139
	Total_core_cache_stats_breakdown[CONST_ACC_R][HIT] = 27237
	Total_core_cache_stats_breakdown[CONST_ACC_R][MISS] = 987
	Total_core_cache_stats_breakdown[CONST_ACC_R][RESERVATION_FAIL] = 2774
	Total_core_cache_stats_breakdown[GLOBAL_ACC_W][MISS] = 1860
	Total_core_cache_stats_breakdown[GLOBAL_ACC_W][RESERVATION_FAIL] = 3
	Total_core_cache_stats_breakdown[INST_ACC_R][HIT] = 243880
	Total_core_cache_stats_breakdown[INST_ACC_R][MISS] = 1091
	Total_core_cache_stats_breakdown[INST_ACC_R][RESERVATION_FAIL] = 4140
Shader 0 warp_id issue ditsribution:
warp_id:
0, 1, 2, 3, 4, 5, 6, 7, 8, 9, 10, 11, 12, 13, 14, 15, 16, 17, 18, 19, 20, 21, 22, 23, 24, 25, 26, 27, 28, 29, 30, 31, 32, 33, 34, 35, 36, 37, 38, 39, 40, 41, 42, 43, 44, 45, 46, 47, 
distro:
437, 437, 437, 437, 437, 408, 437, 437, 437, 437, 437, 408, 1297, 1311, 1311, 1282, 1282, 1297, 845, 874, 874, 874, 874, 845, 874, 874, 874, 874, 874, 860, 437, 437, 437, 437, 437, 408, 437, 437, 437, 437, 437, 437, 437, 437, 437, 437, 437, 408, 
gpgpu_n_tot_thrd_icount = 13976224
gpgpu_n_tot_w_icount = 436757
gpgpu_n_stall_shd_mem = 112702
gpgpu_n_mem_read_local = 0
gpgpu_n_mem_write_local = 0
gpgpu_n_mem_read_global = 5702
gpgpu_n_mem_write_global = 1860
gpgpu_n_mem_texture = 0
gpgpu_n_mem_const = 45
gpgpu_n_load_insn  = 1447992
gpgpu_n_store_insn = 28392
gpgpu_n_shmem_insn = 0
gpgpu_n_tex_insn = 0
gpgpu_n_const_mem_insn = 709800
gpgpu_n_param_mem_insn = 85176
gpgpu_n_shmem_bkconflict = 0
gpgpu_n_cache_bkconflict = 0
gpgpu_n_intrawarp_mshr_merge = 0
gpgpu_n_cmem_portconflict = 2774
gpgpu_stall_shd_mem[c_mem][bk_conf] = 2774
gpgpu_stall_shd_mem[c_mem][mshr_rc] = 0
gpgpu_stall_shd_mem[c_mem][icnt_rc] = 0
gpgpu_stall_shd_mem[c_mem][data_port_stall] = 0
gpgpu_stall_shd_mem[t_mem][mshr_rc] = 0
gpgpu_stall_shd_mem[t_mem][icnt_rc] = 0
gpgpu_stall_shd_mem[t_mem][data_port_stall] = 0
gpgpu_stall_shd_mem[s_mem][bk_conf] = 0
gpgpu_stall_shd_mem[gl_mem][bk_conf] = 0
gpgpu_stall_shd_mem[gl_mem][coal_stall] = 109928
gpgpu_stall_shd_mem[gl_mem][data_port_stall] = 0
gpgpu_stall_shd_mem[g_mem_ld][mshr_rc] = 0
gpgpu_stall_shd_mem[g_mem_ld][icnt_rc] = 0
gpgpu_stall_shd_mem[g_mem_ld][wb_icnt_rc] = 0
gpgpu_stall_shd_mem[g_mem_ld][wb_rsrv_fail] = 0
gpgpu_stall_shd_mem[g_mem_st][mshr_rc] = 0
gpgpu_stall_shd_mem[g_mem_st][icnt_rc] = 0
gpgpu_stall_shd_mem[g_mem_st][wb_icnt_rc] = 0
gpgpu_stall_shd_mem[g_mem_st][wb_rsrv_fail] = 0
gpgpu_stall_shd_mem[l_mem_ld][mshr_rc] = 0
gpgpu_stall_shd_mem[l_mem_ld][icnt_rc] = 0
gpgpu_stall_shd_mem[l_mem_ld][wb_icnt_rc] = 0
gpgpu_stall_shd_mem[l_mem_ld][wb_rsrv_fail] = 0
gpgpu_stall_shd_mem[l_mem_st][mshr_rc] = 0
gpgpu_stall_shd_mem[l_mem_st][icnt_rc] = 0
gpgpu_stall_shd_mem[l_mem_ld][wb_icnt_rc] = 0
gpgpu_stall_shd_mem[l_mem_ld][wb_rsrv_fail] = 0
gpu_reg_bank_conflict_stalls = 0
Warp Occupancy Distribution:
Stall:19592	W0_Idle:7626	W0_Scoreboard:18704	W1:1617	W2:1706	W3:1602	W4:1573	W5:1910	W6:2148	W7:2029	W8:1839	W9:69677	W10:1230	W11:880	W12:982	W13:1064	W14:1298	W15:978	W16:903	W17:828	W18:938	W19:914	W20:652	W21:625	W22:705	W23:1064	W24:1036	W25:1062	W26:1332	W27:1100	W28:1093	W29:981	W30:664	W31:754	W32:331573
traffic_breakdown_coretomem[CONST_ACC_R] = 360 {8:45,}
traffic_breakdown_coretomem[GLOBAL_ACC_R] = 45616 {8:5702,}
traffic_breakdown_coretomem[GLOBAL_ACC_W] = 172800 {40:499,72:504,136:857,}
traffic_breakdown_coretomem[INST_ACC_R] = 840 {8:105,}
traffic_breakdown_memtocore[CONST_ACC_R] = 3240 {72:45,}
traffic_breakdown_memtocore[GLOBAL_ACC_R] = 775472 {136:5702,}
traffic_breakdown_memtocore[GLOBAL_ACC_W] = 14880 {8:1860,}
traffic_breakdown_memtocore[INST_ACC_R] = 14280 {136:105,}
maxmrqlatency = 211 
maxdqlatency = 0 
maxmflatency = 928 
averagemflatency = 238 
max_icnt2mem_latency = 532 
max_icnt2sh_latency = 34384 
mrq_lat_table:1570 	424 	97 	139 	152 	62 	112 	59 	0 	0 	0 	0 	0 	0 	0 	0 	0 	0 	0 	0 	0 	0 	0 	0 	0 	0 	0 	0 	0 	0 	0 	0 	
dq_lat_table:0 	0 	0 	0 	0 	0 	0 	0 	0 	0 	0 	0 	0 	0 	0 	0 	0 	0 	0 	0 	0 	0 	0 	0 	0 	0 	0 	0 	0 	0 	0 	0 	
mf_lat_table:0 	0 	0 	0 	0 	0 	0 	5138 	2014 	455 	0 	0 	0 	0 	0 	0 	0 	0 	0 	0 	0 	0 	0 	0 	0 	0 	0 	0 	0 	0 	0 	0 	
icnt2mem_lat_table:0 	0 	0 	5752 	1018 	339 	215 	278 	109 	1 	0 	0 	0 	0 	0 	0 	0 	0 	0 	0 	0 	0 	0 	0 	
icnt2sh_lat_table:0 	0 	0 	1933 	2539 	1089 	184 	2 	0 	0 	0 	0 	269 	520 	1046 	25 	0 	0 	0 	0 	0 	0 	0 	0 	
mf_lat_pw_table:0 	0 	0 	0 	0 	0 	0 	60 	6 	1 	0 	0 	0 	0 	0 	0 	0 	0 	0 	0 	0 	0 	0 	0 	0 	0 	0 	0 	0 	0 	0 	0 	
maximum concurrent accesses to same row:
dram[0]:         1         0         0         0         0         0         0         0         0         0         0         0         0         0         0         0 
dram[1]:         1         0         0         0         0         0         0         0         0         0         0         0         0         0         0         0 
dram[2]:         0         0         0         0         0         0         0         0         0         0         0         0         0         0         0         0 
dram[3]:         0         0         0         0         0         0         0         0         0         0         0         0         0         0         0         0 
dram[4]:         0         0         0         0         0         0         0         0         0         0         0         0         0         0         0         0 
dram[5]:         0         0         0         0         0         0         0         0         0         0         0         0         0         0         0         0 
maximum service time to same row:
dram[0]:       332         0         0         0      7506      1810      1547      1526      6482       841      6347      6329     11888     12154         0         0 
dram[1]:      1837         0         0         0      7504      1757      1525      1560      7391      9100      6341      6338     11885     12684         0         0 
dram[2]:      4935         0         0         0      8888      1601      1521      1559      9157      7135      6363      6363     11971     12388         0         0 
dram[3]:      6025         0         0         0      8966      1597      1516      1544      6385      9144      6366      6359     11857     12385         0         0 
dram[4]:         0         0         0         0      8959      1606      1532      1541       846      6831      6354      6382     11850     12916         0         0 
dram[5]:         0         0         0         0      9185      1625      1529      1538       851      6828      6357      6358     12460     12369         0         0 
average row accesses per activate:
dram[0]:  1.000000      -nan      -nan      -nan 10.000000 10.000000 32.000000 32.000000 45.000000 44.000000 69.000000 69.000000 60.000000 61.000000      -nan      -nan 
dram[1]:  3.000000      -nan      -nan      -nan 10.000000 10.000000 32.000000 32.000000 44.000000 46.000000 69.000000 70.000000 62.000000 59.000000      -nan      -nan 
dram[2]:  2.000000      -nan      -nan      -nan 10.000000 12.000000 32.000000 32.000000 44.000000 46.000000 69.000000 67.000000 61.000000 59.000000      -nan      -nan 
dram[3]:  1.000000      -nan      -nan      -nan 10.000000 12.000000 32.000000 32.000000 44.000000 46.000000 69.000000 69.000000 62.000000 59.000000      -nan      -nan 
dram[4]:      -nan      -nan      -nan      -nan 10.000000 12.000000 32.000000 32.000000 44.000000 48.000000 73.000000 68.000000 62.000000 58.000000      -nan      -nan 
dram[5]:      -nan      -nan      -nan      -nan 10.000000 12.000000 32.000000 32.000000 44.000000 47.000000 68.000000 69.000000 63.000000 57.000000      -nan      -nan 
average row locality = 2615/66 = 39.621212
number of total memory accesses made:
dram[0]:         0         0         0         0         0         0         0         0         0         0         0         0         0         0         0         0 
dram[1]:         0         0         0         0         0         0         0         0         0         0         0         0         0         0         0         0 
dram[2]:         0         0         0         0         0         0         0         0         0         0         0         0         0         0         0         0 
dram[3]:         0         0         0         0         0         0         0         0         0         0         0         0         0         0         0         0 
dram[4]:         0         0         0         0         0         0         0         0         0         0         0         0         0         0         0         0 
dram[5]:         0         0         0         0         0         0         0         0         0         0         0         0         0         0         0         0 
total accesses: 0
min_bank_accesses = 0!
min_chip_accesses = 0!
number of total read accesses:
dram[0]:         3         0         0         0        10        10        32        32        32        31        32        32        30        30         0         0 
dram[1]:         3         0         0         0        10        10        32        32        32        32        32        32        30        28         0         0 
dram[2]:         2         0         0         0        10        12        32        32        32        32        32        32        30        28         0         0 
dram[3]:         1         0         0         0        10        12        32        32        32        32        32        32        30        28         0         0 
dram[4]:         0         0         0         0        10        12        32        32        32        32        32        32        30        28         0         0 
dram[5]:         0         0         0         0        10        12        32        32        32        32        32        32        30        28         0         0 
total reads: 1638
min_bank_accesses = 0!
chip skew: 274/272 = 1.01
number of total write accesses:
dram[0]:         0         0         0         0         0         0         0         0        13        13        37        37        30        31         0         0 
dram[1]:         0         0         0         0         0         0         0         0        12        14        37        38        32        31         0         0 
[...]
traffic_breakdown_coretomem[CONST_ACC_R] = 600 {8:75,}
traffic_breakdown_coretomem[GLOBAL_ACC_R] = 1374272 {8:171784,}
traffic_breakdown_coretomem[GLOBAL_ACC_W] = 517200 {40:4279,72:1204,136:1907,}
traffic_breakdown_coretomem[INST_ACC_R] = 3000 {8:375,}
traffic_breakdown_memtocore[CONST_ACC_R] = 5400 {72:75,}
traffic_breakdown_memtocore[GLOBAL_ACC_R] = 23362624 {136:171784,}
traffic_breakdown_memtocore[GLOBAL_ACC_W] = 59120 {8:7390,}
traffic_breakdown_memtocore[INST_ACC_R] = 51000 {136:375,}
maxmrqlatency = 211 
maxdqlatency = 0 
maxmflatency = 928 
averagemflatency = 152 
max_icnt2mem_latency = 532 
max_icnt2sh_latency = 2870179 
mrq_lat_table:7385 	822 	202 	413 	455 	103 	120 	59 	0 	0 	0 	0 	0 	0 	0 	0 	0 	0 	0 	0 	0 	0 	0 	0 	0 	0 	0 	0 	0 	0 	0 	0 	
dq_lat_table:0 	0 	0 	0 	0 	0 	0 	0 	0 	0 	0 	0 	0 	0 	0 	0 	0 	0 	0 	0 	0 	0 	0 	0 	0 	0 	0 	0 	0 	0 	0 	0 	
mf_lat_table:0 	0 	0 	0 	0 	0 	0 	171711 	7083 	455 	0 	0 	0 	0 	0 	0 	0 	0 	0 	0 	0 	0 	0 	0 	0 	0 	0 	0 	0 	0 	0 	0 	
icnt2mem_lat_table:0 	0 	0 	176840 	1789 	380 	227 	278 	109 	1 	0 	0 	0 	0 	0 	0 	0 	0 	0 	0 	0 	0 	0 	0 	
icnt2sh_lat_table:0 	0 	0 	157001 	12510 	2155 	191 	2 	0 	0 	0 	0 	269 	520 	1046 	626 	1580 	349 	255 	560 	1099 	1086 	0 	0 	
mf_lat_pw_table:0 	0 	0 	0 	0 	0 	0 	5708 	11 	1 	0 	0 	0 	0 	0 	0 	0 	0 	0 	0 	0 	0 	0 	0 	0 	0 	0 	0 	0 	0 	0 	0 	
maximum concurrent accesses to same row:
dram[0]:        70        69        65        68        32        26        32        32        45        44        69        69        62        63        48        48 
dram[1]:        69        68        70        69        31        31        32        32        44        46        69        70        64        63        48        47 
dram[2]:        64        66        69        70        30        27        32        32        44        46        69        67        63        63        46        46 
dram[3]:        68        70        68        65        28        26        32        32        44        46        69        69        64        63        47        49 
dram[4]:        65        67        73        72        28        28        32        32        44        48        73        68        64        62        46        49 
dram[5]:        64        67        65        66        27        28        32        32        44        47        68        69        65        61        47        48 
maximum service time to same row:
dram[0]:     18449     12542     56412     56322     84635     90978     24459     36450    724808    848728      6347      6329     11888     12154       281       282 
dram[1]:     23427    314081     56407     56319     84789     91069     27445     41684    700174    911029      6341      6338     11885    393967       282       282 
dram[2]:     16481    306253     57066     57407     83399     91500     55610     42359    697540    953259      6363      6363     11971    399467      1534       453 
dram[3]:     14696     93534     57340     56900     83469     91129     15395     39163    703824    711051      6366      6359     11857    403873       281       279 
dram[4]:     19653     24416     57619     56344     83332     91529     18152     17310    703116    725634      6354      6382     11850     12916       294       281 
dram[5]:     12835     24016     58227     57204     83286     91891     24929     16722    795506    689360      6357      6358     12460     12369      1104       291 
average row accesses per activate:
dram[0]: 17.666666 34.333332 48.500000 50.000000  4.000000  3.826087  2.400000  3.200000  2.520000  3.390244 50.500000 50.500000 31.666666 47.500000 40.000000 40.000000 
dram[1]: 26.250000 13.250000 51.000000 50.500000  3.956522  3.407408  2.742857  3.096774  2.415094  3.097561 50.500000 51.000000 48.000000 32.333332 40.000000 39.500000 
dram[2]: 32.666668 17.333334 50.500000 51.000000  4.684210  3.103448  2.823529  2.823529  2.580000  3.378378 50.500000 49.500000 47.500000 32.333332 39.000000 39.000000 
dram[3]: 34.000000 18.000000 50.000000 48.500000  3.826087  3.913043  2.909091  2.594594  3.000000  3.047619 50.500000 50.500000 48.000000 32.333332 39.500000 40.500000 
dram[4]: 33.000000 33.666668 52.500000 52.000000  3.560000  3.956522  3.310345  2.461539  3.181818  3.214286 52.500000 50.000000 48.000000 32.000000 39.000000 40.500000 
dram[5]: 32.666668 33.666668 48.500000 49.000000  3.480000  3.956522  3.200000  2.400000  3.365854  2.733333 50.000000 50.500000 48.500000 31.666666 39.500000 40.000000 
average row locality = 9559/1383 = 6.911786
number of total memory accesses made:
dram[0]:         0         0         0         0         0         0         0         0         0         0         0         0         0         0         0         0 
dram[1]:         0         0         0         0         0         0         0         0         0         0         0         0         0         0         0         0 
dram[2]:         0         0         0         0         0         0         0         0         0         0         0         0         0         0         0         0 
dram[3]:         0         0         0         0         0         0         0         0         0         0         0         0         0         0         0         0 
dram[4]:         0         0         0         0         0         0         0         0         0         0         0         0         0         0         0         0 
dram[5]:         0         0         0         0         0         0         0         0         0         0         0         0         0         0         0         0 
total accesses: 0
min_bank_accesses = 0!
min_chip_accesses = 0!
number of total read accesses:
dram[0]:        68        66        64        64        74        74        96        96        94        93        64        64        64        64        64        64 
dram[1]:        68        68        64        64        74        74        96        96        94        93        64        64        64        64        64        64 
dram[2]:        66        68        64        64        74        76        96        96        94        92        64        64        64        64        64        64 
dram[3]:        66        68        64        64        74        76        96        96        94        92        64        64        64        64        64        64 
dram[4]:        66        66        64        64        74        76        96        96        94        92        64        64        64        64        64        64 
dram[5]:        66        66        64        64        74        76        96        96        94        92        64        64        64        64        64        64 
total reads: 7040
bank skew: 96/64 = 1.50
chip skew: 1175/1172 = 1.00
number of total write accesses:
dram[0]:        38        37        33        36        18        14         0         0        32        46        37        37        31        31        16        16 
dram[1]:        37        38        38        37        17        18         0         0        34        34        37        38        32        33        16        15 
dram[2]:        32        36        37        38        15        14         0         0        35        33        37        35        31        33        14        14 
dram[3]:        36        40        36        33        14        14         0         0        44        36        37        37        32        33        15        17 
dram[4]:        33        35        41        40        15        15         0         0        46        43        41        36        32        32        14        17 
dram[5]:        32        35        33        34        13        15         0         0        44        31        36        37        33        31        15        16 
total reads: 2519
min_bank_accesses = 0!
chip skew: 440/404 = 1.09
average mf latency per bank:
dram[0]:       2529      2586      2567      2500      3013      3202      3403      3583      2768      2480      2442      2475      2639      2534      3627      3555
dram[1]:       2582      2471      2468      2517      3088      3105      3476      3586      2616      2809      2423      2479      2653      2668      3582      3680
dram[2]:       2714      2570      2530      2480      3058      3174      3449      3659      2585      2767      2466      2609      2590      2600      3578      3619
dram[3]:       2624      2490      2509      2569      3086      3263      3554      3768      2506      2632      2502      2438      2520      2704      3711      3379
dram[4]:       2632      2604      2393      2478      3116      3178      3574      3742      2623      2452      2437      2439      2619      2603      3652      3536
dram[5]:       2679      2615      2589      2614      3163      3100      3665      3606      2538      2673      2518      2479      2602      2602      3638      3500
maximum mf latency per bank:
dram[0]:        305       295       277       297       318       505       560       609       386       424       474       420       313       305       331       326
dram[1]:        281       458       347       446       343       517       475       642       432       504       367       390       472       463       311       481
dram[2]:        333       296       302       326       311       725       543       928       347       323       500       403       330       309       313       398
dram[3]:        325       293       278       277       326       754       615       791       351       327       492       465       328       302       371       330
dram[4]:        291       277       379       294       353       471       641       844       388       349       517       501       357       343       375       347
dram[5]:        287       316       295       290       342       401       709       662       424       398       536       644       335       306       316       310

Number of Memory Banks Accessed per Memory Operation per Warp (from 0):
0	0	0	0	0	0	0	0	0	0	0	0	0	0	0	0	0	0	0	0	0	0	0	0	0	0	0	0	0	0	0	0	0	0	0	0	0	0	0	0	0	0	0	0	0	0	0	0	0	0	0	0	0	0	0	0	0	0	0	0	0	0	0	0	0	0	0	0	0	0	0	0	0	0	0	0	0	0	0	0	0	0	0	0	0	0	0	0	0	0	0	0	0	0	0	0	
Average # of Memory Banks Accessed per Memory Operation per Warp=-nan

position of mrq chosen
0	0	0	0	0	0	0	0	0	0	0	0	0	0	0	0	

average position of mrq chosen = -nan
Memory Partition 0: 
Cache L2_bank_000:
MSHR contents

Cache L2_bank_001:
MSHR contents

In Dram Latency Queue (total = 0): 
DRAM[0]: 16 bks, busW=4 BL=8 CL=12, tRRD=2 tCCD=6, tRCD=12 tRAS=28 tRP=12 tRC=40
n_cmd=3788635 n_nop=3785217 n_act=233 n_pre=217 n_req=1595 n_rd=2346 n_write=622 bw_util=0.001567
n_activity=28285 dram_eff=0.2099
bk0: 136a 3787749i bk1: 132a 3787869i bk2: 128a 3787946i bk3: 128a 3787954i bk4: 148a 3787627i bk5: 148a 3787640i bk6: 192a 3787252i bk7: 192a 3787417i bk8: 188a 3786636i bk9: 186a 3786702i bk10: 128a 3787532i bk11: 128a 3787542i bk12: 128a 3787768i bk13: 128a 3787866i bk14: 128a 3788073i bk15: 128a 3788039i 
dram_util_bins: 0 0 0 0 0 0 0 0 0 0
dram_eff_bins: 0 0 0 0 0 0 0 0 0 0
mrqq: max=16 avg=0.00203609
Memory Partition 1: 
Cache L2_bank_002:
MSHR contents

Cache L2_bank_003:
MSHR contents

In Dram Latency Queue (total = 0): 
DRAM[1]: 16 bks, busW=4 BL=8 CL=12, tRRD=2 tCCD=6, tRCD=12 tRAS=28 tRP=12 tRC=40
n_cmd=3788635 n_nop=3785194 n_act=240 n_pre=224 n_req=1599 n_rd=2350 n_write=627 bw_util=0.001572
n_activity=28752 dram_eff=0.2071
bk0: 136a 3787809i bk1: 136a 3787715i bk2: 128a 3787859i bk3: 128a 3787960i bk4: 148a 3787586i bk5: 148a 3787491i bk6: 192a 3787386i bk7: 192a 3787398i bk8: 188a 3786549i bk9: 186a 3786833i bk10: 128a 3787611i bk11: 128a 3787577i bk12: 128a 3787855i bk13: 128a 3787832i bk14: 128a 3788103i bk15: 128a 3788103i 
dram_util_bins: 0 0 0 0 0 0 0 0 0 0
dram_eff_bins: 0 0 0 0 0 0 0 0 0 0
mrqq: max=12 avg=0.00138889
Memory Partition 2: 
Cache L2_bank_004:
MSHR contents

Cache L2_bank_005:
MSHR contents

In Dram Latency Queue (total = 0): 
DRAM[2]: 16 bks, busW=4 BL=8 CL=12, tRRD=2 tCCD=6, tRCD=12 tRAS=28 tRP=12 tRC=40
n_cmd=3788635 n_nop=3785242 n_act=229 n_pre=213 n_req=1578 n_rd=2348 n_write=603 bw_util=0.001558
n_activity=28136 dram_eff=0.2098
bk0: 132a 3787862i bk1: 136a 3787763i bk2: 128a 3787861i bk3: 128a 3787888i bk4: 148a 3787764i bk5: 152a 3787479i bk6: 192a 3787399i bk7: 192a 3787338i bk8: 188a 3786589i bk9: 184a 3786880i bk10: 128a 3787510i bk11: 128a 3787591i bk12: 128a 3787796i bk13: 128a 3787743i bk14: 128a 3788109i bk15: 128a 3788088i 
dram_util_bins: 0 0 0 0 0 0 0 0 0 0
dram_eff_bins: 0 0 0 0 0 0 0 0 0 0
mrqq: max=16 avg=0.00238265
Memory Partition 3: 
Cache L2_bank_006:
MSHR contents

Cache L2_bank_007:
MSHR contents

In Dram Latency Queue (total = 0): 
DRAM[3]: 16 bks, busW=4 BL=8 CL=12, tRRD=2 tCCD=6, tRCD=12 tRAS=28 tRP=12 tRC=40
n_cmd=3788635 n_nop=3785236 n_act=230 n_pre=214 n_req=1598 n_rd=2348 n_write=607 bw_util=0.00156
n_activity=28165 dram_eff=0.2098
bk0: 132a 3787858i bk1: 136a 3787749i bk2: 128a 3787952i bk3: 128a 3787950i bk4: 148a 3787635i bk5: 152a 3787648i bk6: 192a 3787446i bk7: 192a 3787302i bk8: 188a 3786628i bk9: 184a 3786803i bk10: 128a 3787501i bk11: 128a 3787516i bk12: 128a 3787845i bk13: 128a 3787834i bk14: 128a 3788050i bk15: 128a 3787922i 
dram_util_bins: 0 0 0 0 0 0 0 0 0 0
dram_eff_bins: 0 0 0 0 0 0 0 0 0 0
mrqq: max=16 avg=0.00235916
Memory Partition 4: 
Cache L2_bank_008:
MSHR contents

Cache L2_bank_009:
MSHR contents

In Dram Latency Queue (total = 0): 
DRAM[4]: 16 bks, busW=4 BL=8 CL=12, tRRD=2 tCCD=6, tRCD=12 tRAS=28 tRP=12 tRC=40
n_cmd=3788635 n_nop=3785219 n_act=225 n_pre=209 n_req=1612 n_rd=2344 n_write=638 bw_util=0.001574
n_activity=28211 dram_eff=0.2114
bk0: 132a 3787898i bk1: 132a 3787923i bk2: 128a 3787815i bk3: 128a 3787864i bk4: 148a 3787579i bk5: 152a 3787614i bk6: 192a 3787532i bk7: 192a 3787223i bk8: 188a 3786579i bk9: 184a 3786789i bk10: 128a 3787488i bk11: 128a 3787598i bk12: 128a 3787810i bk13: 128a 3787777i bk14: 128a 3788016i bk15: 128a 3787999i 
dram_util_bins: 0 0 0 0 0 0 0 0 0 0
dram_eff_bins: 0 0 0 0 0 0 0 0 0 0
mrqq: max=16 avg=0.00290923
Memory Partition 5: 
Cache L2_bank_010:
MSHR contents

Cache L2_bank_011:
MSHR contents

In Dram Latency Queue (total = 0): 
DRAM[5]: 16 bks, busW=4 BL=8 CL=12, tRRD=2 tCCD=6, tRCD=12 tRAS=28 tRP=12 tRC=40
n_cmd=3788635 n_nop=3785266 n_act=227 n_pre=211 n_req=1577 n_rd=2344 n_write=587 bw_util=0.001547
n_activity=27676 dram_eff=0.2118
bk0: 132a 3787870i bk1: 132a 3787863i bk2: 128a 3787971i bk3: 128a 3787950i bk4: 148a 3787610i bk5: 152a 3787572i bk6: 192a 3787464i bk7: 192a 3787170i bk8: 188a 3786813i bk9: 184a 3786739i bk10: 128a 3787458i bk11: 128a 3787482i bk12: 128a 3787782i bk13: 128a 3787831i bk14: 128a 3788084i bk15: 128a 3788065i 
dram_util_bins: 0 0 0 0 0 0 0 0 0 0
dram_eff_bins: 0 0 0 0 0 0 0 0 0 0
mrqq: max=16 avg=0.00297838

========= L2 cache stats =========
L2_cache_bank[0]: Access = 14995, Miss = 588, Miss_rate = 0.039, Pending_hits = 116, Reservation_fails = 882
L2_cache_bank[1]: Access = 14908, Miss = 585, Miss_rate = 0.039, Pending_hits = 106, Reservation_fails = 882
L2_cache_bank[2]: Access = 14932, Miss = 588, Miss_rate = 0.039, Pending_hits = 119, Reservation_fails = 884
L2_cache_bank[3]: Access = 15153, Miss = 587, Miss_rate = 0.039, Pending_hits = 113, Reservation_fails = 992
L2_cache_bank[4]: Access = 14799, Miss = 586, Miss_rate = 0.040, Pending_hits = 115, Reservation_fails = 653
L2_cache_bank[5]: Access = 15048, Miss = 588, Miss_rate = 0.039, Pending_hits = 100, Reservation_fails = 1049
L2_cache_bank[6]: Access = 14967, Miss = 586, Miss_rate = 0.039, Pending_hits = 124, Reservation_fails = 805
L2_cache_bank[7]: Access = 14962, Miss = 588, Miss_rate = 0.039, Pending_hits = 112, Reservation_fails = 1155
L2_cache_bank[8]: Access = 15105, Miss = 586, Miss_rate = 0.039, Pending_hits = 120, Reservation_fails = 742
L2_cache_bank[9]: Access = 14893, Miss = 586, Miss_rate = 0.039, Pending_hits = 121, Reservation_fails = 1231
L2_cache_bank[10]: Access = 15026, Miss = 586, Miss_rate = 0.039, Pending_hits = 105, Reservation_fails = 669
L2_cache_bank[11]: Access = 14836, Miss = 586, Miss_rate = 0.039, Pending_hits = 92, Reservation_fails = 577
L2_total_cache_accesses = 179624
L2_total_cache_misses = 7040
L2_total_cache_miss_rate = 0.0392
L2_total_cache_pending_hits = 1343
L2_total_cache_reservation_fails = 10521
L2_total_cache_breakdown:
	L2_cache_stats_breakdown[GLOBAL_ACC_R][HIT] = 165876
	L2_cache_stats_breakdown[GLOBAL_ACC_R][HIT_RESERVED] = 975
	L2_cache_stats_breakdown[GLOBAL_ACC_R][MISS] = 4933
	L2_cache_stats_breakdown[GLOBAL_ACC_R][RESERVATION_FAIL] = 8699
	L2_cache_stats_breakdown[CONST_ACC_R][HIT] = 63
	L2_cache_stats_breakdown[CONST_ACC_R][HIT_RESERVED] = 9
	L2_cache_stats_breakdown[CONST_ACC_R][MISS] = 3
	L2_cache_stats_breakdown[CONST_ACC_R][RESERVATION_FAIL] = 289
	L2_cache_stats_breakdown[GLOBAL_ACC_W][HIT] = 5000
	L2_cache_stats_breakdown[GLOBAL_ACC_W][HIT_RESERVED] = 311
	L2_cache_stats_breakdown[GLOBAL_ACC_W][MISS] = 2079
	L2_cache_stats_breakdown[GLOBAL_ACC_W][RESERVATION_FAIL] = 490
	L2_cache_stats_breakdown[INST_ACC_R][HIT] = 302
	L2_cache_stats_breakdown[INST_ACC_R][HIT_RESERVED] = 48
	L2_cache_stats_breakdown[INST_ACC_R][MISS] = 25
	L2_cache_stats_breakdown[INST_ACC_R][RESERVATION_FAIL] = 1043
L2_cache_data_port_util = 0.020
L2_cache_fill_port_util = 0.001

icnt_total_pkts_mem_to_simt=868410
icnt_total_pkts_simt_to_mem=193939
LD_mem_lat_dist  0 0 0 0 0 0 0 0 0 0 0 0 0 0 0 0 0 0 0 0 0 0 0 0 0 0 0
ST_mem_lat_dist  0 0 0 0 0 0 0 0 0 0 0 0 0 0 0 0 0 0 0 0 0 0 0 0 0 0 0
----------------------------Interconnect-DETAILS--------------------------------
Class 0:
Packet latency average = 8.58032
	minimum = 6
	maximum = 43
Network latency average = 8.29065
	minimum = 6
	maximum = 32
Slowest packet = 356428
Flit latency average = 6.76626
	minimum = 6
	maximum = 28
Slowest flit = 1054810
Fragmentation average = 0
	minimum = 0
	maximum = 0
Injected packet rate average = 0.00407233
	minimum = 0.00322114 (at node 7)
	maximum = 0.00604415 (at node 16)
Accepted packet rate average = 0.00407233
	minimum = 0.00322114 (at node 7)
	maximum = 0.00604415 (at node 16)
Injected flit rate average = 0.011091
	minimum = 0.00383641 (at node 7)
	maximum = 0.024068 (at node 26)
Accepted flit rate average= 0.011091
	minimum = 0.00329352 (at node 20)
	maximum = 0.0173362 (at node 4)
Injected packet length average = 2.7235
Accepted packet length average = 2.7235
Total in-flight flits = 0 (0 measured)
====== Overall Traffic Statistics ======
====== Traffic class 0 ======
Packet latency average = 11.0922 (4 samples)
	minimum = 6 (4 samples)
	maximum = 129 (4 samples)
Network latency average = 10.3862 (4 samples)
	minimum = 6 (4 samples)
	maximum = 118.75 (4 samples)
Flit latency average = 8.66294 (4 samples)
	minimum = 6 (4 samples)
	maximum = 116.75 (4 samples)
Fragmentation average = 0 (4 samples)
	minimum = 0 (4 samples)
	maximum = 0 (4 samples)
Injected packet rate average = 0.0112363 (4 samples)
	minimum = 0.00841344 (4 samples)
	maximum = 0.0138204 (4 samples)
Accepted packet rate average = 0.0112363 (4 samples)
	minimum = 0.00841344 (4 samples)
	maximum = 0.0138204 (4 samples)
Injected flit rate average = 0.0323921 (4 samples)
	minimum = 0.0117486 (4 samples)
	maximum = 0.0609496 (4 samples)
Accepted flit rate average = 0.0323921 (4 samples)
	minimum = 0.0159903 (4 samples)
	maximum = 0.0501142 (4 samples)
Injected packet size average = 2.8828 (4 samples)
Accepted packet size average = 2.8828 (4 samples)
Hops average = 1 (4 samples)
----------------------------END-of-Interconnect-DETAILS-------------------------


gpgpu_simulation_time = 0 days, 2 hrs, 39 min, 35 sec (9575 sec)
gpgpu_simulation_rate = 8182 (inst/sec)
gpgpu_simulation_rate = 299 (cycle/sec)
7 2 1 0 4 1 4 9 6 9 0 6 9 0 1 5 9 7 3 4 9 6 6 5 4 0 7 4
