

        *** GPGPU-Sim Simulator Version 3.2.2  [build 0] ***


GPGPU-Sim PTX: simulation mode 0 (can change with PTX_SIM_MODE_FUNC environment variable:
               1=functional simulation only, 0=detailed performance simulator)
GPGPU-Sim: Configuration options:

-network_mode                           1 # Interconnection network mode
-inter_config_file   config_fermi_islip.icnt # Interconnection network config file
-gpgpu_ptx_use_cuobjdump                    1 # Use cuobjdump to extract ptx and sass from binaries
-gpgpu_experimental_lib_support                    0 # Try to extract code from cuda libraries [Broken because of unknown cudaGetExportTable]
-gpgpu_ptx_convert_to_ptxplus                    0 # Convert SASS (native ISA) to ptxplus and run ptxplus
-gpgpu_ptx_force_max_capability                   20 # Force maximum compute capability
-gpgpu_ptx_inst_debug_to_file                    0 # Dump executed instructions' debug information to file
-gpgpu_ptx_inst_debug_file       inst_debug.txt # Executed instructions' debug output file
-gpgpu_ptx_inst_debug_thread_uid                    1 # Thread UID for executed instructions' debug output
-gpgpu_simd_model                       1 # 1 = post-dominator
-gpgpu_shader_core_pipeline          1536:256:32 # shader core pipeline config, i.e., {<nthread>:<warpsize>}
-gpgpu_tex_cache:l1  4:128:24,L:R:m:N:L,F:128:4,128:2 # per-shader L1 texture cache  (READ-ONLY) config  {<nsets>:<bsize>:<assoc>,<rep>:<wr>:<alloc>:<wr_alloc>,<mshr>:<N>:<merge>,<mq>:<rf>}
-gpgpu_const_cache:l1 64:64:2,L:R:f:N:L,A:2:32,4 # per-shader L1 constant memory cache  (READ-ONLY) config  {<nsets>:<bsize>:<assoc>,<rep>:<wr>:<alloc>:<wr_alloc>,<mshr>:<N>:<merge>,<mq>} 
-gpgpu_cache:il1     4:128:4,L:R:f:N:L,A:2:32,4 # shader L1 instruction cache config  {<nsets>:<bsize>:<assoc>,<rep>:<wr>:<alloc>:<wr_alloc>,<mshr>:<N>:<merge>,<mq>} 
-gpgpu_cache:dl1     32:128:4,L:L:m:N:H,A:32:8,8 # per-shader L1 data cache config  {<nsets>:<bsize>:<assoc>,<rep>:<wr>:<alloc>:<wr_alloc>,<mshr>:<N>:<merge>,<mq> | none}
-gpgpu_cache:dl1PrefL1                 none # per-shader L1 data cache config  {<nsets>:<bsize>:<assoc>,<rep>:<wr>:<alloc>:<wr_alloc>,<mshr>:<N>:<merge>,<mq> | none}
-gpgpu_cache:dl1PreShared                 none # per-shader L1 data cache config  {<nsets>:<bsize>:<assoc>,<rep>:<wr>:<alloc>:<wr_alloc>,<mshr>:<N>:<merge>,<mq> | none}
-gmem_skip_L1D                          0 # global memory access skip L1D cache (implements -Xptxas -dlcm=cg, default=no skip)
-gpgpu_perfect_mem                      0 # enable perfect memory mode (no cache miss)
-n_regfile_gating_group                    4 # group of lanes that should be read/written together)
-gpgpu_clock_gated_reg_file                    0 # enable clock gated reg file for power calculations
-gpgpu_clock_gated_lanes                    0 # enable clock gated lanes for power calculations
-gpgpu_shader_registers                32768 # Number of registers per shader core. Limits number of concurrent CTAs. (default 8192)
-gpgpu_shader_cta                       8 # Maximum number of concurrent CTAs in shader (default 8)
-gpgpu_num_cta_barriers                   16 # Maximum number of named barriers per CTA (default 16)
-gpgpu_n_clusters                      15 # number of processing clusters
-gpgpu_n_cores_per_cluster                    1 # number of simd cores per cluster
-gpgpu_n_cluster_ejection_buffer_size                    8 # number of packets in ejection buffer
-gpgpu_n_ldst_response_buffer_size                    2 # number of response packets in ld/st unit ejection buffer
-gpgpu_shmem_size                   16384 # Size of shared memory per shader core (default 16kB)
-gpgpu_shmem_size                   49152 # Size of shared memory per shader core (default 16kB)
-gpgpu_shmem_size_PrefL1                16384 # Size of shared memory per shader core (default 16kB)
-gpgpu_shmem_size_PrefShared                16384 # Size of shared memory per shader core (default 16kB)
-gpgpu_shmem_num_banks                   32 # Number of banks in the shared memory in each shader core (default 16)
-gpgpu_shmem_limited_broadcast                    0 # Limit shared memory to do one broadcast per cycle (default on)
-gpgpu_shmem_warp_parts                    1 # Number of portions a warp is divided into for shared memory bank conflict check 
-gpgpu_warpdistro_shader                   -1 # Specify which shader core to collect the warp size distribution from
-gpgpu_warp_issue_shader                    0 # Specify which shader core to collect the warp issue distribution from
-gpgpu_local_mem_map                    1 # Mapping from local memory space address to simulated GPU physical address space (default = enabled)
-gpgpu_num_reg_banks                   16 # Number of register banks (default = 8)
-gpgpu_reg_bank_use_warp_id                    0 # Use warp ID in mapping registers to banks (default = off)
-gpgpu_operand_collector_num_units_sp                    6 # number of collector units (default = 4)
-gpgpu_operand_collector_num_units_sfu                    8 # number of collector units (default = 4)
-gpgpu_operand_collector_num_units_mem                    2 # number of collector units (default = 2)
-gpgpu_operand_collector_num_units_gen                    0 # number of collector units (default = 0)
-gpgpu_operand_collector_num_in_ports_sp                    2 # number of collector unit in ports (default = 1)
-gpgpu_operand_collector_num_in_ports_sfu                    1 # number of collector unit in ports (default = 1)
-gpgpu_operand_collector_num_in_ports_mem                    1 # number of collector unit in ports (default = 1)
-gpgpu_operand_collector_num_in_ports_gen                    0 # number of collector unit in ports (default = 0)
-gpgpu_operand_collector_num_out_ports_sp                    2 # number of collector unit in ports (default = 1)
-gpgpu_operand_collector_num_out_ports_sfu                    1 # number of collector unit in ports (default = 1)
-gpgpu_operand_collector_num_out_ports_mem                    1 # number of collector unit in ports (default = 1)
-gpgpu_operand_collector_num_out_ports_gen                    0 # number of collector unit in ports (default = 0)
-gpgpu_coalesce_arch                   13 # Coalescing arch (default = 13, anything else is off for now)
-gpgpu_num_sched_per_core                    1 # Number of warp schedulers per core
-gpgpu_max_insn_issue_per_warp                    1 # Max number of instructions that can be issued per warp in one cycle by scheduler
-gpgpu_simt_core_sim_order                    1 # Select the simulation order of cores in a cluster (0=Fix, 1=Round-Robin)
-gpgpu_pipeline_widths        2,1,1,2,1,1,2 # Pipeline widths ID_OC_SP,ID_OC_SFU,ID_OC_MEM,OC_EX_SP,OC_EX_SFU,OC_EX_MEM,EX_WB
-gpgpu_num_sp_units                     2 # Number of SP units (default=1)
-gpgpu_num_sfu_units                    1 # Number of SF units (default=1)
-gpgpu_num_mem_units                    1 # Number if ldst units (default=1) WARNING: not hooked up to anything
-gpgpu_scheduler                      gto # Scheduler configuration: < lrr | gto | two_level_active > If two_level_active:<num_active_warps>:<inner_prioritization>:<outer_prioritization>For complete list of prioritization values see shader.h enum scheduler_prioritization_typeDefault: gto
-gpgpu_dram_scheduler                    1 # 0 = fifo, 1 = FR-FCFS (defaul)
-gpgpu_dram_partition_queues              8:8:8:8 # i2$:$2d:d2$:$2i
-l2_ideal                               0 # Use a ideal L2 cache that always hit
-gpgpu_cache:dl2     64:128:8,L:B:m:W:L,A:32:4,4:0,32 # unified banked L2 data cache config  {<nsets>:<bsize>:<assoc>,<rep>:<wr>:<alloc>:<wr_alloc>,<mshr>:<N>:<merge>,<mq>}
-gpgpu_cache:dl2_texture_only                    0 # L2 cache used for texture only
-gpgpu_n_mem                            6 # number of memory modules (e.g. memory controllers) in gpu
-gpgpu_n_sub_partition_per_mchannel                    2 # number of memory subpartition in each memory module
-gpgpu_n_mem_per_ctrlr                    2 # number of memory chips per memory controller
-gpgpu_memlatency_stat                   14 # track and display latency statistics 0x2 enables MC, 0x4 enables queue logs
-gpgpu_frfcfs_dram_sched_queue_size                   16 # 0 = unlimited (default); # entries per chip
-gpgpu_dram_return_queue_size                  116 # 0 = unlimited (default); # entries per chip
-gpgpu_dram_buswidth                    4 # default = 4 bytes (8 bytes per cycle at DDR)
-gpgpu_dram_burst_length                    8 # Burst length of each DRAM request (default = 4 data bus cycle)
-dram_data_command_freq_ratio                    4 # Frequency ratio between DRAM data bus and command bus (default = 2 times, i.e. DDR)
-gpgpu_dram_timing_opt nbk=16:CCD=2:RRD=6:RCD=12:RAS=28:RP=12:RC=40: CL=12:WL=4:CDLR=5:WR=12:nbkgrp=4:CCDL=3:RTPL=2 # DRAM timing parameters = {nbk:tCCD:tRRD:tRCD:tRAS:tRP:tRC:CL:WL:tCDLR:tWR:nbkgrp:tCCDL:tRTPL}
-rop_latency                          120 # ROP queue latency (default 85)
-dram_latency                         100 # DRAM latency (default 30)
-gpgpu_mem_addr_mapping dramid@8;00000000.00000000.00000000.00000000.0000RRRR.RRRRRRRR.BBBCCCCB.CCSSSSSS # mapping memory address to dram model {dramid@<start bit>;<memory address map>}
-gpgpu_mem_addr_test                    0 # run sweep test to check address mapping for aliased address
-gpgpu_mem_address_mask                    1 # 0 = old addressing mask, 1 = new addressing mask, 2 = new add. mask + flipped bank sel and chip sel bits
-gpuwattch_xml_file  gpuwattch_gtx480.xml # GPUWattch XML file
-power_simulation_enabled                    1 # Turn on power simulator (1=On, 0=Off)
-power_per_cycle_dump                    0 # Dump detailed power output each cycle
-power_trace_enabled                    0 # produce a file for the power trace (1=On, 0=Off)
-power_trace_zlevel                     6 # Compression level of the power trace output log (0=no comp, 9=highest)
-steady_power_levels_enabled                    0 # produce a file for the steady power levels (1=On, 0=Off)
-steady_state_definition                  8:4 # allowed deviation:number of samples
-gpgpu_max_cycle                        0 # terminates gpu simulation early (0 = no limit)
-gpgpu_max_insn                         0 # terminates gpu simulation early (0 = no limit)
-gpgpu_max_cta                          0 # terminates gpu simulation early (0 = no limit)
-gpgpu_runtime_stat                   500 # display runtime statistics such as dram utilization {<freq>:<flag>}
-liveness_message_freq                    1 # Minimum number of seconds between simulation liveness messages (0 = always print)
-gpgpu_flush_l1_cache                    0 # Flush L1 cache at the end of each kernel call
-gpgpu_flush_l2_cache                    0 # Flush L2 cache at the end of each kernel call
-gpgpu_deadlock_detect                    1 # Stop the simulation at deadlock (1=on (default), 0=off)
-gpgpu_ptx_instruction_classification                    0 # if enabled will classify ptx instruction types per kernel (Max 255 kernels now)
-gpgpu_ptx_sim_mode                     0 # Select between Performance (default) or Functional simulation (1)
-gpgpu_clock_domains 700.0:700.0:700.0:924.0 # Clock Domain Frequencies in MhZ {<Core Clock>:<ICNT Clock>:<L2 Clock>:<DRAM Clock>}
-gpgpu_max_concurrent_kernel                    8 # maximum kernels that can run concurrently on GPU
-gpgpu_cflog_interval                    0 # Interval between each snapshot in control flow logger
-visualizer_enabled                     0 # Turn on visualizer output (1=On, 0=Off)
-visualizer_outputfile                 NULL # Specifies the output log file for visualizer
-visualizer_zlevel                      6 # Compression level of the visualizer output log (0=no comp, 9=highest)
-trace_enabled                          0 # Turn on traces
-trace_components                    none # comma seperated list of traces to enable. Complete list found in trace_streams.tup. Default none
-trace_sampling_core                    0 # The core which is printed using CORE_DPRINTF. Default 0
-trace_sampling_memory_partition                   -1 # The memory partition which is printed using MEMPART_DPRINTF. Default -1 (i.e. all)
-enable_ptx_file_line_stats                    1 # Turn on PTX source line statistic profiling. (1 = On)
-ptx_line_stats_filename gpgpu_inst_stats.txt # Output file for PTX source line statistics.
-save_embedded_ptx                      0 # saves ptx files embedded in binary as <n>.ptx
-keep                                   0 # keep intermediate files created by GPGPU-Sim when interfacing with external programs
-gpgpu_ptx_save_converted_ptxplus                    0 # Saved converted ptxplus to a file
-ptx_opcode_latency_int         4,13,4,5,145 # Opcode latencies for integers <ADD,MAX,MUL,MAD,DIV>Default 1,1,19,25,145
-ptx_opcode_latency_fp          4,13,4,5,39 # Opcode latencies for single precision floating points <ADD,MAX,MUL,MAD,DIV>Default 1,1,1,1,30
-ptx_opcode_latency_dp         8,19,8,8,330 # Opcode latencies for double precision floating points <ADD,MAX,MUL,MAD,DIV>Default 8,8,8,8,335
-ptx_opcode_initiation_int            1,2,2,1,8 # Opcode initiation intervals for integers <ADD,MAX,MUL,MAD,DIV>Default 1,1,4,4,32
-ptx_opcode_initiation_fp            1,2,1,1,4 # Opcode initiation intervals for single precision floating points <ADD,MAX,MUL,MAD,DIV>Default 1,1,1,1,5
-ptx_opcode_initiation_dp         8,16,8,8,130 # Opcode initiation intervals for double precision floating points <ADD,MAX,MUL,MAD,DIV>Default 8,8,8,8,130
ESHA: SIMD Width was found to be : 32
DRAM Timing Options:
nbk                                    16 # number of banks
CCD                                     2 # column to column delay
RRD                                     6 # minimal delay between activation of rows in different banks
RCD                                    12 # row to column delay
RAS                                    28 # time needed to activate row
RP                                     12 # time needed to precharge (deactivate) row
RC                                     40 # row cycle time
CDLR                                    5 # switching from write to read (changes tWTR)
WR                                     12 # last data-in to row precharge
CL                                     12 # CAS latency
WL                                      4 # Write latency
nbkgrp                                  4 # number of bank groups
CCDL                                    3 # column to column delay between accesses to different bank groups
RTPL                                    2 # read to precharge delay between accesses to different bank groups
Total number of memory sub partition = 12
addr_dec_mask[CHIP]  = 0000000000000000 	high:64 low:0
addr_dec_mask[BK]    = 000000000000e100 	high:16 low:8
addr_dec_mask[ROW]   = 000000000fff0000 	high:28 low:16
addr_dec_mask[COL]   = 0000000000001eff 	high:13 low:0
addr_dec_mask[BURST] = 000000000000003f 	high:6 low:0
sub_partition_id_mask = 0000000000000100
GPGPU-Sim uArch: clock freqs: 700000000.000000:700000000.000000:700000000.000000:924000000.000000
GPGPU-Sim uArch: clock periods: 0.00000000142857142857:0.00000000142857142857:0.00000000142857142857:0.00000000108225108225
ESHA_CHANGED: in shader config simd is  32 
*** Initializing Memory Statistics ***
GPGPU-Sim uArch: interconnect node map (shaderID+MemID to icntID)
GPGPU-Sim uArch: Memory nodes ID start from index: 15
GPGPU-Sim uArch:    0   1   2   3   4
GPGPU-Sim uArch:    5   6   7   8   9
GPGPU-Sim uArch:   10  11  12  13  14
GPGPU-Sim uArch:   15  16  17  18  19
GPGPU-Sim uArch:   20  21  22  23  24
GPGPU-Sim uArch:   25  26
GPGPU-Sim uArch: interconnect node reverse map (icntID to shaderID+MemID)
GPGPU-Sim uArch: Memory nodes start from ID: 15
GPGPU-Sim uArch:    0   1   2   3   4
GPGPU-Sim uArch:    5   6   7   8   9
GPGPU-Sim uArch:   10  11  12  13  14
GPGPU-Sim uArch:   15  16  17  18  19
GPGPU-Sim uArch:   20  21  22  23  24
GPGPU-Sim uArch:   25  26
03b9286cba6ad3de9af5d785bd8bc158  /home/kishore/project_source/gpu_class_proj/gpgpusim-benchmarks-master/bin/release/NN
GPGPU-Sim uArch: performance model initialization complete.
GPGPU-Sim PTX: __cudaRegisterFatBinary, fat_cubin_handle = 1, filename=NN.cu
self exe links to: /home/kishore/project_source/gpu_class_proj/gpgpusim-benchmarks-master/bin/release/NN
Running md5sum using "md5sum /home/kishore/project_source/gpu_class_proj/gpgpusim-benchmarks-master/bin/release/NN "
Running cuobjdump using "$CUDA_INSTALL_PATH/bin/cuobjdump -ptx -elf -sass /home/kishore/project_source/gpu_class_proj/gpgpusim-benchmarks-master/bin/release/NN > _cuobjdump_complete_output_elbadv"
Parsing file _cuobjdump_complete_output_elbadv
######### cuobjdump parser ########
## Adding new section PTX
Adding ptx filename: _cuobjdump_1.ptx
Adding arch: sm_10
Adding identifier: NN.cu
## Adding new section ELF
Adding arch: sm_10
Adding identifier: NN.cu
## Adding new section ELF
Adding arch: sm_20
Adding identifier: NN.cu
## Adding new section PTX
Adding ptx filename: _cuobjdump_2.ptx
Adding arch: sm_20
Adding identifier: NN.cu
Done parsing!!!
GPGPU-Sim PTX: __cudaRegisterFunction _Z18executeFourthLayerPfS_S_ : hostFun 0x0x4010a0, fat_cubin_handle = 1
GPGPU-Sim PTX: allocating constant region for "kernelTemplate" from 0x100 to 0x164 (global memory space) 1
GPGPU-Sim PTX: instruction assembly for function '_Z17executeFirstLayerPfS_S_'...   done.
GPGPU-Sim PTX: finding reconvergence points for '_Z17executeFirstLayerPfS_S_'...
GPGPU-Sim PTX: Finding dominators for '_Z17executeFirstLayerPfS_S_'...
GPGPU-Sim PTX: Finding immediate dominators for '_Z17executeFirstLayerPfS_S_'...
GPGPU-Sim PTX: Finding postdominators for '_Z17executeFirstLayerPfS_S_'...
GPGPU-Sim PTX: Finding immediate postdominators for '_Z17executeFirstLayerPfS_S_'...
GPGPU-Sim PTX: pre-decoding instructions for '_Z17executeFirstLayerPfS_S_'...
GPGPU-Sim PTX: reconvergence points for _Z17executeFirstLayerPfS_S_...
GPGPU-Sim PTX:  1 (potential) branch divergence @  PC=0x100 (_1.ptx:100) @%p1 bra $Lt_0_4098;
GPGPU-Sim PTX:    immediate post dominator      @  PC=0x108 (_1.ptx:102) cvt.f64.f32 %fd1, %f1;
GPGPU-Sim PTX:  2 (potential) branch divergence @  PC=0x148 (_1.ptx:110) @!%p2 bra $Lt_0_4866;
GPGPU-Sim PTX:    immediate post dominator      @  PC=0x2a8 (_1.ptx:162) cvt.f64.f32 %fd5, %f29;
GPGPU-Sim PTX:  3 (potential) branch divergence @  PC=0x230 (_1.ptx:142) bra.uni $Lt_0_4610;
GPGPU-Sim PTX:    immediate post dominator      @  PC=0x2a8 (_1.ptx:162) cvt.f64.f32 %fd5, %f29;
GPGPU-Sim PTX: ... end of reconvergence points for _Z17executeFirstLayerPfS_S_
GPGPU-Sim PTX: ... done pre-decoding instructions for '_Z17executeFirstLayerPfS_S_'.
GPGPU-Sim PTX: allocating constant region for "kernelTemplate2" from 0x180 to 0x1e4 (global memory space) 2
GPGPU-Sim PTX: instruction assembly for function '_Z18executeSecondLayerPfS_S_'...   done.
GPGPU-Sim PTX: finding reconvergence points for '_Z18executeSecondLayerPfS_S_'...
GPGPU-Sim PTX: Finding dominators for '_Z18executeSecondLayerPfS_S_'...
GPGPU-Sim PTX: Finding immediate dominators for '_Z18executeSecondLayerPfS_S_'...
GPGPU-Sim PTX: Finding postdominators for '_Z18executeSecondLayerPfS_S_'...
GPGPU-Sim PTX: Finding immediate postdominators for '_Z18executeSecondLayerPfS_S_'...
GPGPU-Sim PTX: pre-decoding instructions for '_Z18executeSecondLayerPfS_S_'...
GPGPU-Sim PTX: reconvergence points for _Z18executeSecondLayerPfS_S_...
GPGPU-Sim PTX:  1 (potential) branch divergence @  PC=0x4a0 (_1.ptx:251) @%p1 bra $Lt_1_5634;
GPGPU-Sim PTX:    immediate post dominator      @  PC=0x4a8 (_1.ptx:253) cvt.f64.f32 %fd1, %f1;
GPGPU-Sim PTX:  2 (potential) branch divergence @  PC=0x4e8 (_1.ptx:261) @!%p2 bra $Lt_1_6402;
GPGPU-Sim PTX:    immediate post dominator      @  PC=0x648 (_1.ptx:313) cvt.f64.f32 %fd5, %f44;
GPGPU-Sim PTX:  3 (potential) branch divergence @  PC=0x5d0 (_1.ptx:293) bra.uni $Lt_1_6146;
GPGPU-Sim PTX:    immediate post dominator      @  PC=0x648 (_1.ptx:313) cvt.f64.f32 %fd5, %f44;
GPGPU-Sim PTX: ... end of reconvergence points for _Z18executeSecondLayerPfS_S_
GPGPU-Sim PTX: ... done pre-decoding instructions for '_Z18executeSecondLayerPfS_S_'.
GPGPU-Sim PTX: instruction assembly for function '_Z17executeThirdLayerPfS_S_'...   done.
GPGPU-Sim PTX: finding reconvergence points for '_Z17executeThirdLayerPfS_S_'...
GPGPU-Sim PTX: Finding dominators for '_Z17executeThirdLayerPfS_S_'...
GPGPU-Sim PTX: Finding immediate dominators for '_Z17executeThirdLayerPfS_S_'...
GPGPU-Sim PTX: Finding postdominators for '_Z17executeThirdLayerPfS_S_'...
GPGPU-Sim PTX: Finding immediate postdominators for '_Z17executeThirdLayerPfS_S_'...
GPGPU-Sim PTX: pre-decoding instructions for '_Z17executeThirdLayerPfS_S_'...
GPGPU-Sim PTX: reconvergence points for _Z17executeThirdLayerPfS_S_...
GPGPU-Sim PTX:  1 (potential) branch divergence @  PC=0x788 (_1.ptx:373) @%p1 bra $Lt_2_4098;
GPGPU-Sim PTX:    immediate post dominator      @  PC=0x790 (_1.ptx:375) cvt.f64.f32 %fd1, %f1;
GPGPU-Sim PTX:  2 (potential) branch divergence @  PC=0x7d0 (_1.ptx:383) @!%p2 bra $Lt_2_4866;
GPGPU-Sim PTX:    immediate post dominator      @  PC=0x930 (_1.ptx:435) cvt.f64.f32 %fd5, %f29;
GPGPU-Sim PTX:  3 (potential) branch divergence @  PC=0x8b8 (_1.ptx:415) bra.uni $Lt_2_4610;
GPGPU-Sim PTX:    immediate post dominator      @  PC=0x930 (_1.ptx:435) cvt.f64.f32 %fd5, %f29;
GPGPU-Sim PTX: ... end of reconvergence points for _Z17executeThirdLayerPfS_S_
GPGPU-Sim PTX: ... done pre-decoding instructions for '_Z17executeThirdLayerPfS_S_'.
GPGPU-Sim PTX: instruction assembly for function '_Z18executeFourthLayerPfS_S_'...   done.
GPGPU-Sim PTX: finding reconvergence points for '_Z18executeFourthLayerPfS_S_'...
GPGPU-Sim PTX: Finding dominators for '_Z18executeFourthLayerPfS_S_'...
GPGPU-Sim PTX: Finding immediate dominators for '_Z18executeFourthLayerPfS_S_'...
GPGPU-Sim PTX: Finding postdominators for '_Z18executeFourthLayerPfS_S_'...
GPGPU-Sim PTX: Finding immediate postdominators for '_Z18executeFourthLayerPfS_S_'...
GPGPU-Sim PTX: pre-decoding instructions for '_Z18executeFourthLayerPfS_S_'...
GPGPU-Sim PTX: reconvergence points for _Z18executeFourthLayerPfS_S_...
GPGPU-Sim PTX:  1 (potential) branch divergence @  PC=0xa50 (_1.ptx:491) @%p1 bra $Lt_3_4098;
GPGPU-Sim PTX:    immediate post dominator      @  PC=0xa58 (_1.ptx:493) cvt.f64.f32 %fd1, %f1;
GPGPU-Sim PTX:  2 (potential) branch divergence @  PC=0xa98 (_1.ptx:501) @!%p2 bra $Lt_3_4866;
GPGPU-Sim PTX:    immediate post dominator      @  PC=0xbf8 (_1.ptx:553) cvt.f64.f32 %fd5, %f29;
GPGPU-Sim PTX:  3 (potential) branch divergence @  PC=0xb80 (_1.ptx:533) bra.uni $Lt_3_4610;
GPGPU-Sim PTX:    immediate post dominator      @  PC=0xbf8 (_1.ptx:553) cvt.f64.f32 %fd5, %f29;
GPGPU-Sim PTX: ... end of reconvergence points for _Z18executeFourthLayerPfS_S_
GPGPU-Sim PTX: ... done pre-decoding instructions for '_Z18executeFourthLayerPfS_S_'.
GPGPU-Sim PTX: finished parsing EMBEDDED .ptx file _1.ptx
Adding _cuobjdump_2.ptx with cubin handle 1
GPGPU-Sim PTX: extracting embedded .ptx to temporary file "_ptx_q6ri6Q"
Running: cat _ptx_q6ri6Q | sed 's/.version 1.5/.version 1.4/' | sed 's/, texmode_independent//' | sed 's/\(\.extern \.const\[1\] .b8 \w\+\)\[\]/\1\[1\]/' | sed 's/const\[.\]/const\[0\]/g' > _ptx2_aVgsZc
GPGPU-Sim PTX: generating ptxinfo using "$CUDA_INSTALL_PATH/bin/ptxas --gpu-name=sm_20 -v _ptx2_aVgsZc --output-file  /dev/null 2> _ptx_q6ri6Qinfo"
GPGPU-Sim PTX: Kernel '_Z18executeFourthLayerPfS_S_' : regs=12, lmem=0, smem=0, cmem=288
GPGPU-Sim PTX: Kernel '_Z17executeThirdLayerPfS_S_' : regs=12, lmem=0, smem=0, cmem=288
GPGPU-Sim PTX: Kernel '_Z18executeSecondLayerPfS_S_' : regs=22, lmem=0, smem=0, cmem=288
GPGPU-Sim PTX: Kernel '_Z17executeFirstLayerPfS_S_' : regs=17, lmem=0, smem=0, cmem=288
GPGPU-Sim PTX: removing ptxinfo using "rm -f _ptx_q6ri6Q _ptx2_aVgsZc _ptx_q6ri6Qinfo"
GPGPU-Sim PTX: loading globals with explicit initializers... 
GPGPU-Sim PTX: finished loading globals (0 bytes total).
GPGPU-Sim PTX: loading constants with explicit initializers...  done.
GPGPU-Sim PTX: __cudaRegisterFunction _Z17executeThirdLayerPfS_S_ : hostFun 0x0x401130, fat_cubin_handle = 1
GPGPU-Sim PTX: __cudaRegisterFunction _Z18executeSecondLayerPfS_S_ : hostFun 0x0x4011c0, fat_cubin_handle = 1
GPGPU-Sim PTX: __cudaRegisterFunction _Z17executeFirstLayerPfS_S_ : hostFun 0x0x401250, fat_cubin_handle = 1
GPGPU-Sim PTX: __cudaRegisterVar: hostVar = 0x610180; deviceAddress = kernelTemplate; deviceName = kernelTemplate
GPGPU-Sim PTX: __cudaRegisterVar: Registering const memory space of 100 bytes
GPGPU-Sim PTX registering constant kernelTemplate (100 bytes) to name mapping
GPGPU-Sim PTX: __cudaRegisterVar: hostVar = 0x610200; deviceAddress = kernelTemplate2; deviceName = kernelTemplate2
GPGPU-Sim PTX: __cudaRegisterVar: Registering const memory space of 100 bytes
GPGPU-Sim PTX registering constant kernelTemplate2 (100 bytes) to name mapping
magic number = 2051
number of items = 10000
number of rows = 28
number of rows = 28
NUM=28

GPGPU-Sim PTX: cudaLaunch for 0x0x401250 (mode=performance simulation) on stream 0
GPGPU-Sim PTX: pushing kernel '_Z17executeFirstLayerPfS_S_' to stream 0, gridDim= (6,28,1) blockDim = (13,13,1) 
kernel '_Z17executeFirstLayerPfS_S_' transfer to GPU hardware scheduler
GPGPU-Sim uArch: Shader 1 bind to kernel 1 '_Z17executeFirstLayerPfS_S_'
GPGPU-Sim uArch: CTA/core = 6, limited by: threads regs
GPGPU-Sim uArch: core:  1, cta: 0 initialized @(1,0)
GPGPU-Sim uArch: Shader 2 bind to kernel 1 '_Z17executeFirstLayerPfS_S_'
GPGPU-Sim uArch: core:  2, cta: 0 initialized @(1,0)
GPGPU-Sim uArch: Shader 3 bind to kernel 1 '_Z17executeFirstLayerPfS_S_'
GPGPU-Sim uArch: core:  3, cta: 0 initialized @(1,0)
GPGPU-Sim uArch: Shader 4 bind to kernel 1 '_Z17executeFirstLayerPfS_S_'
GPGPU-Sim uArch: core:  4, cta: 0 initialized @(1,0)
GPGPU-Sim uArch: Shader 5 bind to kernel 1 '_Z17executeFirstLayerPfS_S_'
GPGPU-Sim uArch: core:  5, cta: 0 initialized @(1,0)
GPGPU-Sim uArch: Shader 6 bind to kernel 1 '_Z17executeFirstLayerPfS_S_'
GPGPU-Sim uArch: core:  6, cta: 0 initialized @(1,0)
GPGPU-Sim uArch: Shader 7 bind to kernel 1 '_Z17executeFirstLayerPfS_S_'
GPGPU-Sim uArch: core:  7, cta: 0 initialized @(1,0)
GPGPU-Sim uArch: Shader 8 bind to kernel 1 '_Z17executeFirstLayerPfS_S_'
GPGPU-Sim uArch: core:  8, cta: 0 initialized @(1,0)
GPGPU-Sim uArch: Shader 9 bind to kernel 1 '_Z17executeFirstLayerPfS_S_'
GPGPU-Sim uArch: core:  9, cta: 0 initialized @(1,0)
GPGPU-Sim uArch: Shader 10 bind to kernel 1 '_Z17executeFirstLayerPfS_S_'
GPGPU-Sim uArch: core: 10, cta: 0 initialized @(1,0)
GPGPU-Sim uArch: Shader 11 bind to kernel 1 '_Z17executeFirstLayerPfS_S_'
GPGPU-Sim uArch: core: 11, cta: 0 initialized @(1,0)
GPGPU-Sim uArch: Shader 12 bind to kernel 1 '_Z17executeFirstLayerPfS_S_'
GPGPU-Sim uArch: core: 12, cta: 0 initialized @(1,0)
GPGPU-Sim uArch: Shader 13 bind to kernel 1 '_Z17executeFirstLayerPfS_S_'
GPGPU-Sim uArch: core: 13, cta: 0 initialized @(1,0)
GPGPU-Sim uArch: Shader 14 bind to kernel 1 '_Z17executeFirstLayerPfS_S_'
GPGPU-Sim uArch: core: 14, cta: 0 initialized @(1,0)
GPGPU-Sim uArch: Shader 0 bind to kernel 1 '_Z17executeFirstLayerPfS_S_'
GPGPU-Sim uArch: core:  0, cta: 0 initialized @(1,0)
GPGPU-Sim uArch: core:  1, cta: 1 initialized @(2,0)
GPGPU-Sim uArch: core:  2, cta: 1 initialized @(2,0)
GPGPU-Sim uArch: core:  3, cta: 1 initialized @(2,0)
GPGPU-Sim uArch: core:  4, cta: 1 initialized @(2,0)
GPGPU-Sim uArch: core:  5, cta: 1 initialized @(2,0)
GPGPU-Sim uArch: core:  6, cta: 1 initialized @(2,0)
GPGPU-Sim uArch: core:  7, cta: 1 initialized @(2,0)
GPGPU-Sim uArch: core:  8, cta: 1 initialized @(2,0)
GPGPU-Sim uArch: core:  9, cta: 1 initialized @(2,0)
GPGPU-Sim uArch: core: 10, cta: 1 initialized @(2,0)
GPGPU-Sim uArch: core: 11, cta: 1 initialized @(2,0)
GPGPU-Sim uArch: core: 12, cta: 1 initialized @(2,0)
GPGPU-Sim uArch: core: 13, cta: 1 initialized @(2,0)
GPGPU-Sim uArch: core: 14, cta: 1 initialized @(2,0)
GPGPU-Sim uArch: core:  0, cta: 1 initialized @(2,0)
GPGPU-Sim uArch: core:  1, cta: 2 initialized @(3,0)
GPGPU-Sim uArch: core:  2, cta: 2 initialized @(3,0)
GPGPU-Sim uArch: core:  3, cta: 2 initialized @(3,0)
GPGPU-Sim uArch: core:  4, cta: 2 initialized @(3,0)
GPGPU-Sim uArch: core:  5, cta: 2 initialized @(3,0)
GPGPU-Sim uArch: core:  6, cta: 2 initialized @(3,0)
GPGPU-Sim uArch: core:  7, cta: 2 initialized @(3,0)
GPGPU-Sim uArch: core:  8, cta: 2 initialized @(3,0)
GPGPU-Sim uArch: core:  9, cta: 2 initialized @(3,0)
GPGPU-Sim uArch: core: 10, cta: 2 initialized @(3,0)
GPGPU-Sim uArch: core: 11, cta: 2 initialized @(3,0)
GPGPU-Sim uArch: core: 12, cta: 2 initialized @(3,0)
GPGPU-Sim uArch: core: 13, cta: 2 initialized @(3,0)
GPGPU-Sim uArch: core: 14, cta: 2 initialized @(3,0)
GPGPU-Sim uArch: core:  0, cta: 2 initialized @(3,0)
GPGPU-Sim uArch: core:  1, cta: 3 initialized @(4,0)
GPGPU-Sim uArch: core:  2, cta: 3 initialized @(4,0)
GPGPU-Sim uArch: core:  3, cta: 3 initialized @(4,0)
GPGPU-Sim uArch: core:  4, cta: 3 initialized @(4,0)
GPGPU-Sim uArch: core:  5, cta: 3 initialized @(4,0)
GPGPU-Sim uArch: core:  6, cta: 3 initialized @(4,0)
GPGPU-Sim uArch: core:  7, cta: 3 initialized @(4,0)
GPGPU-Sim uArch: core:  8, cta: 3 initialized @(4,0)
GPGPU-Sim uArch: core:  9, cta: 3 initialized @(4,0)
GPGPU-Sim uArch: core: 10, cta: 3 initialized @(4,0)
GPGPU-Sim uArch: core: 11, cta: 3 initialized @(4,0)
GPGPU-Sim uArch: core: 12, cta: 3 initialized @(4,0)
GPGPU-Sim uArch: core: 13, cta: 3 initialized @(4,0)
GPGPU-Sim uArch: core: 14, cta: 3 initialized @(4,0)
GPGPU-Sim uArch: core:  0, cta: 3 initialized @(4,0)
GPGPU-Sim uArch: core:  1, cta: 4 initialized @(5,0)
GPGPU-Sim uArch: core:  2, cta: 4 initialized @(5,0)
GPGPU-Sim uArch: core:  3, cta: 4 initialized @(5,0)
GPGPU-Sim uArch: core:  4, cta: 4 initialized @(5,0)
GPGPU-Sim uArch: core:  5, cta: 4 initialized @(5,0)
GPGPU-Sim uArch: core:  6, cta: 4 initialized @(5,0)
GPGPU-Sim uArch: core:  7, cta: 4 initialized @(5,0)
GPGPU-Sim uArch: core:  8, cta: 4 initialized @(5,0)
GPGPU-Sim uArch: core:  9, cta: 4 initialized @(5,0)
GPGPU-Sim uArch: core: 10, cta: 4 initialized @(5,0)
GPGPU-Sim uArch: core: 11, cta: 4 initialized @(5,0)
GPGPU-Sim uArch: core: 12, cta: 4 initialized @(5,0)
GPGPU-Sim uArch: core: 13, cta: 4 initialized @(5,0)
GPGPU-Sim uArch: core: 14, cta: 4 initialized @(5,0)
GPGPU-Sim uArch: core:  0, cta: 4 initialized @(5,0)
GPGPU-Sim uArch: core:  1, cta: 5 initialized @(6,0)
GPGPU-Sim uArch: core:  2, cta: 5 initialized @(6,0)
GPGPU-Sim uArch: core:  3, cta: 5 initialized @(6,0)
GPGPU-Sim uArch: core:  4, cta: 5 initialized @(6,0)
GPGPU-Sim uArch: core:  5, cta: 5 initialized @(6,0)
GPGPU-Sim uArch: core:  6, cta: 5 initialized @(6,0)
GPGPU-Sim uArch: core:  7, cta: 5 initialized @(6,0)
GPGPU-Sim uArch: core:  8, cta: 5 initialized @(6,0)
GPGPU-Sim uArch: core:  9, cta: 5 initialized @(6,0)
GPGPU-Sim uArch: core: 10, cta: 5 initialized @(6,0)
GPGPU-Sim uArch: core: 11, cta: 5 initialized @(6,0)
GPGPU-Sim uArch: core: 12, cta: 5 initialized @(6,0)
GPGPU-Sim uArch: core: 13, cta: 5 initialized @(6,0)
GPGPU-Sim uArch: core: 14, cta: 5 initialized @(6,0)
GPGPU-Sim uArch: core:  0, cta: 5 initialized @(6,0)
GPGPU-Sim uArch: cycles simulated: 500  inst.: 60840 (ipc=121.7) sim_rate=30420 (inst/sec) elapsed = 0:0:00:02 / Tue May 12 21:11:42 2015
GPGPU-Sim PTX: 100000 instructions simulated : ctaid=(5,0,0) tid=(3,9,0)
GPGPU-Sim PTX: 200000 instructions simulated : ctaid=(1,10,0) tid=(7,5,0)
GPGPU-Sim PTX: 300000 instructions simulated : ctaid=(4,4,0) tid=(11,1,0)
GPGPU-Sim uArch: cycles simulated: 1000  inst.: 288990 (ipc=289.0) sim_rate=57798 (inst/sec) elapsed = 0:0:00:05 / Tue May 12 21:11:45 2015
GPGPU-Sim uArch: cycles simulated: 1500  inst.: 380250 (ipc=253.5) sim_rate=54321 (inst/sec) elapsed = 0:0:00:07 / Tue May 12 21:11:47 2015
GPGPU-Sim PTX: 400000 instructions simulated : ctaid=(1,11,0) tid=(2,11,0)
GPGPU-Sim uArch: cycles simulated: 2000  inst.: 402896 (ipc=201.4) sim_rate=50362 (inst/sec) elapsed = 0:0:00:08 / Tue May 12 21:11:48 2015
GPGPU-Sim uArch: cycles simulated: 2500  inst.: 441597 (ipc=176.6) sim_rate=49066 (inst/sec) elapsed = 0:0:00:09 / Tue May 12 21:11:49 2015
GPGPU-Sim PTX: 500000 instructions simulated : ctaid=(2,3,0) tid=(6,7,0)
GPGPU-Sim uArch: cycles simulated: 3000  inst.: 530153 (ipc=176.7) sim_rate=48195 (inst/sec) elapsed = 0:0:00:11 / Tue May 12 21:11:51 2015
GPGPU-Sim PTX: 600000 instructions simulated : ctaid=(2,14,0) tid=(10,3,0)
GPGPU-Sim uArch: cycles simulated: 3500  inst.: 605020 (ipc=172.9) sim_rate=46540 (inst/sec) elapsed = 0:0:00:13 / Tue May 12 21:11:53 2015
GPGPU-Sim PTX: 700000 instructions simulated : ctaid=(4,4,0) tid=(1,0,0)
GPGPU-Sim uArch: cycles simulated: 4000  inst.: 727545 (ipc=181.9) sim_rate=48503 (inst/sec) elapsed = 0:0:00:15 / Tue May 12 21:11:55 2015
GPGPU-Sim PTX: 800000 instructions simulated : ctaid=(0,12,0) tid=(5,9,0)
GPGPU-Sim uArch: cycles simulated: 4500  inst.: 862914 (ipc=191.8) sim_rate=47939 (inst/sec) elapsed = 0:0:00:18 / Tue May 12 21:11:58 2015
GPGPU-Sim PTX: 900000 instructions simulated : ctaid=(2,6,0) tid=(9,5,0)
GPGPU-Sim PTX: 1000000 instructions simulated : ctaid=(2,7,0) tid=(0,2,0)
GPGPU-Sim uArch: cycles simulated: 5000  inst.: 992030 (ipc=198.4) sim_rate=49601 (inst/sec) elapsed = 0:0:00:20 / Tue May 12 21:12:00 2015
GPGPU-Sim PTX: 1100000 instructions simulated : ctaid=(1,6,0) tid=(4,11,0)
GPGPU-Sim uArch: cycles simulated: 5500  inst.: 1119287 (ipc=203.5) sim_rate=48664 (inst/sec) elapsed = 0:0:00:23 / Tue May 12 21:12:03 2015
GPGPU-Sim PTX: 1200000 instructions simulated : ctaid=(2,8,0) tid=(8,7,0)
GPGPU-Sim uArch: cycles simulated: 6000  inst.: 1249248 (ipc=208.2) sim_rate=49969 (inst/sec) elapsed = 0:0:00:25 / Tue May 12 21:12:05 2015
GPGPU-Sim PTX: 1300000 instructions simulated : ctaid=(2,3,0) tid=(12,3,0)
GPGPU-Sim PTX: 1400000 instructions simulated : ctaid=(4,12,0) tid=(3,0,0)
GPGPU-Sim uArch: cycles simulated: 6500  inst.: 1385293 (ipc=213.1) sim_rate=51307 (inst/sec) elapsed = 0:0:00:27 / Tue May 12 21:12:07 2015
GPGPU-Sim PTX: 1500000 instructions simulated : ctaid=(3,10,0) tid=(7,9,0)
GPGPU-Sim uArch: cycles simulated: 7000  inst.: 1515254 (ipc=216.5) sim_rate=50508 (inst/sec) elapsed = 0:0:00:30 / Tue May 12 21:12:10 2015
GPGPU-Sim PTX: 1600000 instructions simulated : ctaid=(5,12,0) tid=(11,5,0)
GPGPU-Sim uArch: cycles simulated: 7500  inst.: 1651299 (ipc=220.2) sim_rate=50039 (inst/sec) elapsed = 0:0:00:33 / Tue May 12 21:12:13 2015
GPGPU-Sim PTX: 1700000 instructions simulated : ctaid=(1,4,0) tid=(2,2,0)
GPGPU-Sim PTX: 1800000 instructions simulated : ctaid=(1,10,0) tid=(6,11,0)
GPGPU-Sim uArch: cycles simulated: 8000  inst.: 1783288 (ipc=222.9) sim_rate=49535 (inst/sec) elapsed = 0:0:00:36 / Tue May 12 21:12:16 2015
GPGPU-Sim PTX: 1900000 instructions simulated : ctaid=(5,6,0) tid=(10,7,0)
GPGPU-Sim uArch: cycles simulated: 8500  inst.: 1934881 (ipc=227.6) sim_rate=49612 (inst/sec) elapsed = 0:0:00:39 / Tue May 12 21:12:19 2015
GPGPU-Sim PTX: 2000000 instructions simulated : ctaid=(3,3,0) tid=(1,4,0)
GPGPU-Sim uArch: cycles simulated: 9000  inst.: 2065687 (ipc=229.5) sim_rate=50382 (inst/sec) elapsed = 0:0:00:41 / Tue May 12 21:12:21 2015
GPGPU-Sim PTX: 2100000 instructions simulated : ctaid=(5,11,0) tid=(5,0,0)
GPGPU-Sim PTX: 2200000 instructions simulated : ctaid=(3,3,0) tid=(9,9,0)
GPGPU-Sim uArch: cycles simulated: 9500  inst.: 2211365 (ipc=232.8) sim_rate=50258 (inst/sec) elapsed = 0:0:00:44 / Tue May 12 21:12:24 2015
GPGPU-Sim PTX: 2300000 instructions simulated : ctaid=(2,12,0) tid=(0,6,0)
GPGPU-Sim uArch: cycles simulated: 10000  inst.: 2331186 (ipc=233.1) sim_rate=50677 (inst/sec) elapsed = 0:0:00:46 / Tue May 12 21:12:26 2015
GPGPU-Sim PTX: 2400000 instructions simulated : ctaid=(5,3,0) tid=(4,2,0)
GPGPU-Sim uArch: cycles simulated: 10500  inst.: 2457260 (ipc=234.0) sim_rate=50148 (inst/sec) elapsed = 0:0:00:49 / Tue May 12 21:12:29 2015
GPGPU-Sim PTX: 2500000 instructions simulated : ctaid=(2,4,0) tid=(8,11,0)
GPGPU-Sim PTX: 2600000 instructions simulated : ctaid=(5,5,0) tid=(12,7,0)
GPGPU-Sim uArch: cycles simulated: 11000  inst.: 2595502 (ipc=236.0) sim_rate=50892 (inst/sec) elapsed = 0:0:00:51 / Tue May 12 21:12:31 2015
GPGPU-Sim PTX: 2700000 instructions simulated : ctaid=(2,7,0) tid=(3,4,0)
GPGPU-Sim uArch: cycles simulated: 11500  inst.: 2736448 (ipc=238.0) sim_rate=50674 (inst/sec) elapsed = 0:0:00:54 / Tue May 12 21:12:34 2015
GPGPU-Sim PTX: 2800000 instructions simulated : ctaid=(2,7,0) tid=(7,0,0)
GPGPU-Sim uArch: cycles simulated: 12000  inst.: 2854579 (ipc=237.9) sim_rate=50974 (inst/sec) elapsed = 0:0:00:56 / Tue May 12 21:12:36 2015
GPGPU-Sim PTX: 2900000 instructions simulated : ctaid=(5,9,0) tid=(11,9,0)
GPGPU-Sim uArch: cycles simulated: 12500  inst.: 2966795 (ipc=237.3) sim_rate=51151 (inst/sec) elapsed = 0:0:00:58 / Tue May 12 21:12:38 2015
GPGPU-Sim PTX: 3000000 instructions simulated : ctaid=(5,14,0) tid=(2,6,0)
GPGPU-Sim PTX: 3100000 instructions simulated : ctaid=(5,10,0) tid=(6,2,0)
GPGPU-Sim uArch: cycles simulated: 13000  inst.: 3095742 (ipc=238.1) sim_rate=50749 (inst/sec) elapsed = 0:0:01:01 / Tue May 12 21:12:41 2015
GPGPU-Sim PTX: 3200000 instructions simulated : ctaid=(1,4,0) tid=(10,11,0)
GPGPU-Sim uArch: cycles simulated: 13500  inst.: 3211507 (ipc=237.9) sim_rate=50976 (inst/sec) elapsed = 0:0:01:03 / Tue May 12 21:12:43 2015
GPGPU-Sim PTX: 3300000 instructions simulated : ctaid=(1,13,0) tid=(1,8,0)
GPGPU-Sim uArch: cycles simulated: 14000  inst.: 3331835 (ipc=238.0) sim_rate=51259 (inst/sec) elapsed = 0:0:01:05 / Tue May 12 21:12:45 2015
GPGPU-Sim PTX: 3400000 instructions simulated : ctaid=(5,1,0) tid=(5,4,0)
GPGPU-Sim uArch: cycles simulated: 14500  inst.: 3464669 (ipc=238.9) sim_rate=50951 (inst/sec) elapsed = 0:0:01:08 / Tue May 12 21:12:48 2015
GPGPU-Sim PTX: 3500000 instructions simulated : ctaid=(4,5,0) tid=(9,0,0)
GPGPU-Sim PTX: 3600000 instructions simulated : ctaid=(0,14,0) tid=(0,10,0)
GPGPU-Sim uArch: cycles simulated: 15000  inst.: 3595644 (ipc=239.7) sim_rate=51366 (inst/sec) elapsed = 0:0:01:10 / Tue May 12 21:12:50 2015
GPGPU-Sim PTX: 3700000 instructions simulated : ctaid=(0,9,0) tid=(4,6,0)
GPGPU-Sim uArch: cycles simulated: 15500  inst.: 3720028 (ipc=240.0) sim_rate=51667 (inst/sec) elapsed = 0:0:01:12 / Tue May 12 21:12:52 2015
GPGPU-Sim PTX: 3800000 instructions simulated : ctaid=(1,0,0) tid=(8,2,0)
GPGPU-Sim uArch: cycles simulated: 16000  inst.: 3847623 (ipc=240.5) sim_rate=51994 (inst/sec) elapsed = 0:0:01:14 / Tue May 12 21:12:54 2015
GPGPU-Sim PTX: 3900000 instructions simulated : ctaid=(1,1,0) tid=(12,11,0)
GPGPU-Sim uArch: cycles simulated: 16500  inst.: 3959501 (ipc=240.0) sim_rate=52098 (inst/sec) elapsed = 0:0:01:16 / Tue May 12 21:12:56 2015
GPGPU-Sim PTX: 4000000 instructions simulated : ctaid=(2,2,0) tid=(3,8,0)
GPGPU-Sim PTX: 4100000 instructions simulated : ctaid=(0,5,0) tid=(7,4,0)
GPGPU-Sim uArch: cycles simulated: 17000  inst.: 4082195 (ipc=240.1) sim_rate=51673 (inst/sec) elapsed = 0:0:01:19 / Tue May 12 21:12:59 2015
GPGPU-Sim PTX: 4200000 instructions simulated : ctaid=(2,2,0) tid=(11,0,0)
GPGPU-Sim uArch: cycles simulated: 17500  inst.: 4214353 (ipc=240.8) sim_rate=52029 (inst/sec) elapsed = 0:0:01:21 / Tue May 12 21:13:01 2015
GPGPU-Sim PTX: 4300000 instructions simulated : ctaid=(2,6,0) tid=(2,10,0)
GPGPU-Sim uArch: cycles simulated: 18000  inst.: 4359355 (ipc=242.2) sim_rate=51897 (inst/sec) elapsed = 0:0:01:24 / Tue May 12 21:13:04 2015
GPGPU-Sim PTX: 4400000 instructions simulated : ctaid=(0,12,0) tid=(6,6,0)
GPGPU-Sim PTX: 4500000 instructions simulated : ctaid=(2,7,0) tid=(10,2,0)
GPGPU-Sim uArch: cycles simulated: 18500  inst.: 4487288 (ipc=242.6) sim_rate=52177 (inst/sec) elapsed = 0:0:01:26 / Tue May 12 21:13:06 2015
GPGPU-Sim PTX: 4600000 instructions simulated : ctaid=(1,2,0) tid=(1,12,0)
GPGPU-Sim uArch: cycles simulated: 19000  inst.: 4599655 (ipc=242.1) sim_rate=52268 (inst/sec) elapsed = 0:0:01:28 / Tue May 12 21:13:08 2015
GPGPU-Sim PTX: 4700000 instructions simulated : ctaid=(0,6,0) tid=(3,9,0)
GPGPU-Sim uArch: cycles simulated: 19500  inst.: 4728760 (ipc=242.5) sim_rate=51964 (inst/sec) elapsed = 0:0:01:31 / Tue May 12 21:13:11 2015
GPGPU-Sim PTX: 4800000 instructions simulated : ctaid=(1,14,0) tid=(10,2,0)
GPGPU-Sim uArch: cycles simulated: 20000  inst.: 4866518 (ipc=243.3) sim_rate=52328 (inst/sec) elapsed = 0:0:01:33 / Tue May 12 21:13:13 2015
GPGPU-Sim PTX: 4900000 instructions simulated : ctaid=(4,1,0) tid=(11,9,0)
GPGPU-Sim PTX: 5000000 instructions simulated : ctaid=(0,4,0) tid=(3,10,0)
GPGPU-Sim uArch: cycles simulated: 20500  inst.: 5013064 (ipc=244.5) sim_rate=52219 (inst/sec) elapsed = 0:0:01:36 / Tue May 12 21:13:16 2015
GPGPU-Sim PTX: 5100000 instructions simulated : ctaid=(1,14,0) tid=(3,6,0)
GPGPU-Sim uArch: Shader 2 finished CTA #2 (20998,0), 5 CTAs running
GPGPU-Sim uArch: core:  2, cta: 2 initialized @(20999,0)
GPGPU-Sim uArch: cycles simulated: 21000  inst.: 5172457 (ipc=246.3) sim_rate=52780 (inst/sec) elapsed = 0:0:01:38 / Tue May 12 21:13:18 2015
GPGPU-Sim PTX: 5200000 instructions simulated : ctaid=(4,5,0) tid=(4,6,0)
GPGPU-Sim uArch: Shader 2 finished CTA #1 (21153,0), 5 CTAs running
GPGPU-Sim uArch: core:  2, cta: 1 initialized @(21154,0)
GPGPU-Sim PTX: 5300000 instructions simulated : ctaid=(3,6,0) tid=(0,10,0)
GPGPU-Sim PTX: 5400000 instructions simulated : ctaid=(3,12,0) tid=(8,4,0)
GPGPU-Sim uArch: cycles simulated: 21500  inst.: 5381176 (ipc=250.3) sim_rate=52756 (inst/sec) elapsed = 0:0:01:42 / Tue May 12 21:13:22 2015
GPGPU-Sim PTX: 5500000 instructions simulated : ctaid=(0,0,0) tid=(4,11,0)
GPGPU-Sim uArch: Shader 1 finished CTA #2 (21753,0), 5 CTAs running
GPGPU-Sim uArch: core:  1, cta: 2 initialized @(21754,0)
GPGPU-Sim uArch: Shader 2 finished CTA #5 (21859,0), 5 CTAs running
GPGPU-Sim uArch: core:  2, cta: 5 initialized @(21860,0)
GPGPU-Sim uArch: Shader 1 finished CTA #3 (21861,0), 5 CTAs running
GPGPU-Sim uArch: core:  1, cta: 3 initialized @(21862,0)
GPGPU-Sim PTX: 5600000 instructions simulated : ctaid=(0,3,0) tid=(0,8,0)
GPGPU-Sim uArch: Shader 2 finished CTA #4 (21982,0), 5 CTAs running
GPGPU-Sim uArch: core:  2, cta: 4 initialized @(21983,0)
GPGPU-Sim uArch: cycles simulated: 22000  inst.: 5598654 (ipc=254.5) sim_rate=53320 (inst/sec) elapsed = 0:0:01:45 / Tue May 12 21:13:25 2015
GPGPU-Sim uArch: Shader 2 finished CTA #0 (22044,0), 5 CTAs running
GPGPU-Sim uArch: core:  2, cta: 0 initialized @(22045,0)
GPGPU-Sim PTX: 5700000 instructions simulated : ctaid=(3,4,0) tid=(10,8,0)
GPGPU-Sim uArch: Shader 1 finished CTA #5 (22190,0), 5 CTAs running
GPGPU-Sim uArch: core:  1, cta: 5 initialized @(22191,0)
GPGPU-Sim uArch: Shader 1 finished CTA #0 (22218,0), 5 CTAs running
GPGPU-Sim uArch: core:  1, cta: 0 initialized @(22219,0)
GPGPU-Sim uArch: Shader 2 finished CTA #3 (22236,0), 5 CTAs running
GPGPU-Sim uArch: core:  2, cta: 3 initialized @(22237,0)
GPGPU-Sim uArch: Shader 5 finished CTA #0 (22314,0), 5 CTAs running
GPGPU-Sim uArch: core:  5, cta: 0 initialized @(22315,0)
GPGPU-Sim uArch: Shader 1 finished CTA #4 (22334,0), 5 CTAs running
GPGPU-Sim uArch: core:  1, cta: 4 initialized @(22335,0)
GPGPU-Sim uArch: Shader 9 finished CTA #0 (22352,0), 5 CTAs running
GPGPU-Sim uArch: core:  9, cta: 0 initialized @(22353,0)
GPGPU-Sim uArch: Shader 9 finished CTA #3 (22376,0), 5 CTAs running
GPGPU-Sim uArch: core:  9, cta: 3 initialized @(22377,0)
GPGPU-Sim PTX: 5800000 instructions simulated : ctaid=(5,16,0) tid=(9,1,0)
GPGPU-Sim uArch: Shader 5 finished CTA #3 (22406,0), 5 CTAs running
GPGPU-Sim uArch: core:  5, cta: 3 initialized @(22407,0)
GPGPU-Sim uArch: Shader 5 finished CTA #2 (22464,0), 5 CTAs running
GPGPU-Sim uArch: core:  5, cta: 2 initialized @(22465,0)
GPGPU-Sim uArch: cycles simulated: 22500  inst.: 5819676 (ipc=258.7) sim_rate=53885 (inst/sec) elapsed = 0:0:01:48 / Tue May 12 21:13:28 2015
GPGPU-Sim uArch: Shader 5 finished CTA #1 (22563,0), 5 CTAs running
GPGPU-Sim uArch: core:  5, cta: 1 initialized @(22564,0)
GPGPU-Sim uArch: Shader 9 finished CTA #1 (22573,0), 5 CTAs running
GPGPU-Sim uArch: core:  9, cta: 1 initialized @(22574,0)
GPGPU-Sim uArch: Shader 1 finished CTA #1 (22591,0), 5 CTAs running
GPGPU-Sim uArch: core:  1, cta: 1 initialized @(22592,0)
GPGPU-Sim uArch: Shader 5 finished CTA #4 (22605,0), 5 CTAs running
GPGPU-Sim PTX: 5900000 instructions simulated : ctaid=(0,7,0) tid=(2,5,0)
GPGPU-Sim uArch: core:  5, cta: 4 initialized @(22606,0)
GPGPU-Sim uArch: Shader 9 finished CTA #5 (22623,0), 5 CTAs running
GPGPU-Sim uArch: core:  9, cta: 5 initialized @(22624,0)
GPGPU-Sim uArch: Shader 10 finished CTA #3 (22665,0), 5 CTAs running
GPGPU-Sim uArch: core: 10, cta: 3 initialized @(22666,0)
GPGPU-Sim uArch: Shader 9 finished CTA #4 (22673,0), 5 CTAs running
GPGPU-Sim uArch: core:  9, cta: 4 initialized @(22674,0)
GPGPU-Sim PTX: 6000000 instructions simulated : ctaid=(2,0,0) tid=(3,4,0)
GPGPU-Sim uArch: Shader 9 finished CTA #2 (22773,0), 5 CTAs running
GPGPU-Sim uArch: core:  9, cta: 2 initialized @(22774,0)
GPGPU-Sim uArch: Shader 6 finished CTA #0 (22861,0), 5 CTAs running
GPGPU-Sim uArch: core:  6, cta: 0 initialized @(22862,0)
GPGPU-Sim uArch: Shader 5 finished CTA #5 (22881,0), 5 CTAs running
GPGPU-Sim uArch: core:  5, cta: 5 initialized @(22882,0)
GPGPU-Sim uArch: Shader 10 finished CTA #1 (22895,0), 5 CTAs running
GPGPU-Sim uArch: core: 10, cta: 1 initialized @(22896,0)
GPGPU-Sim uArch: Shader 6 finished CTA #2 (22917,0), 5 CTAs running
GPGPU-Sim uArch: core:  6, cta: 2 initialized @(22918,0)
GPGPU-Sim PTX: 6100000 instructions simulated : ctaid=(4,16,0) tid=(4,6,0)
GPGPU-Sim uArch: Shader 6 finished CTA #3 (22949,0), 5 CTAs running
GPGPU-Sim uArch: core:  6, cta: 3 initialized @(22950,0)
GPGPU-Sim uArch: Shader 6 finished CTA #1 (22953,0), 5 CTAs running
GPGPU-Sim uArch: core:  6, cta: 1 initialized @(22954,0)
GPGPU-Sim uArch: cycles simulated: 23000  inst.: 6117461 (ipc=266.0) sim_rate=54136 (inst/sec) elapsed = 0:0:01:53 / Tue May 12 21:13:33 2015
GPGPU-Sim uArch: Shader 6 finished CTA #5 (23051,0), 5 CTAs running
GPGPU-Sim uArch: core:  6, cta: 5 initialized @(23052,0)
GPGPU-Sim PTX: 6200000 instructions simulated : ctaid=(2,0,0) tid=(7,6,0)
GPGPU-Sim uArch: Shader 10 finished CTA #0 (23141,0), 5 CTAs running
GPGPU-Sim uArch: core: 10, cta: 0 initialized @(23142,0)
GPGPU-Sim uArch: Shader 6 finished CTA #4 (23181,0), 5 CTAs running
GPGPU-Sim uArch: core:  6, cta: 4 initialized @(23182,0)
GPGPU-Sim uArch: Shader 10 finished CTA #2 (23275,0), 5 CTAs running
GPGPU-Sim uArch: core: 10, cta: 2 initialized @(23276,0)
GPGPU-Sim uArch: Shader 8 finished CTA #2 (23279,0), 5 CTAs running
GPGPU-Sim uArch: core:  8, cta: 2 initialized @(23280,0)
GPGPU-Sim uArch: Shader 8 finished CTA #0 (23303,0), 5 CTAs running
GPGPU-Sim uArch: core:  8, cta: 0 initialized @(23304,0)
GPGPU-Sim uArch: Shader 4 finished CTA #0 (23319,0), 5 CTAs running
GPGPU-Sim uArch: core:  4, cta: 0 initialized @(23320,0)
GPGPU-Sim PTX: 6300000 instructions simulated : ctaid=(0,16,0) tid=(6,11,0)
GPGPU-Sim uArch: Shader 7 finished CTA #0 (23347,0), 5 CTAs running
GPGPU-Sim uArch: core:  7, cta: 0 initialized @(23348,0)
GPGPU-Sim uArch: Shader 4 finished CTA #2 (23351,0), 5 CTAs running
GPGPU-Sim uArch: core:  4, cta: 2 initialized @(23352,0)
GPGPU-Sim uArch: Shader 4 finished CTA #1 (23414,0), 5 CTAs running
GPGPU-Sim uArch: core:  4, cta: 1 initialized @(23415,0)
GPGPU-Sim uArch: Shader 8 finished CTA #3 (23420,0), 5 CTAs running
GPGPU-Sim uArch: core:  8, cta: 3 initialized @(23421,0)
GPGPU-Sim uArch: Shader 7 finished CTA #1 (23422,0), 5 CTAs running
GPGPU-Sim uArch: core:  7, cta: 1 initialized @(23423,0)
GPGPU-Sim uArch: Shader 4 finished CTA #3 (23446,0), 5 CTAs running
GPGPU-Sim uArch: core:  4, cta: 3 initialized @(23447,0)
GPGPU-Sim uArch: Shader 7 finished CTA #2 (23450,0), 5 CTAs running
GPGPU-Sim uArch: core:  7, cta: 2 initialized @(23451,0)
GPGPU-Sim PTX: 6400000 instructions simulated : ctaid=(2,21,0) tid=(2,8,0)
GPGPU-Sim uArch: Shader 8 finished CTA #1 (23474,0), 5 CTAs running
GPGPU-Sim uArch: core:  8, cta: 1 initialized @(23475,0)
GPGPU-Sim uArch: Shader 8 finished CTA #4 (23476,0), 5 CTAs running
GPGPU-Sim uArch: core:  8, cta: 4 initialized @(23477,0)
GPGPU-Sim uArch: Shader 7 finished CTA #3 (23494,0), 5 CTAs running
GPGPU-Sim uArch: core:  7, cta: 3 initialized @(23495,0)
GPGPU-Sim uArch: cycles simulated: 23500  inst.: 6410125 (ipc=272.8) sim_rate=54787 (inst/sec) elapsed = 0:0:01:57 / Tue May 12 21:13:37 2015
GPGPU-Sim uArch: Shader 7 finished CTA #4 (23504,0), 5 CTAs running
GPGPU-Sim uArch: core:  7, cta: 4 initialized @(23505,0)
GPGPU-Sim uArch: Shader 10 finished CTA #5 (23512,0), 5 CTAs running
GPGPU-Sim uArch: core: 10, cta: 5 initialized @(23513,0)
GPGPU-Sim uArch: Shader 8 finished CTA #5 (23540,0), 5 CTAs running
GPGPU-Sim uArch: core:  8, cta: 5 initialized @(23541,0)
GPGPU-Sim uArch: Shader 4 finished CTA #5 (23550,0), 5 CTAs running
GPGPU-Sim uArch: core:  4, cta: 5 initialized @(23551,0)
GPGPU-Sim PTX: 6500000 instructions simulated : ctaid=(2,16,0) tid=(5,5,0)
GPGPU-Sim uArch: Shader 4 finished CTA #4 (23626,0), 5 CTAs running
GPGPU-Sim uArch: core:  4, cta: 4 initialized @(23627,0)
GPGPU-Sim PTX: 6600000 instructions simulated : ctaid=(0,2,0) tid=(9,6,0)
GPGPU-Sim uArch: Shader 7 finished CTA #5 (23716,0), 5 CTAs running
GPGPU-Sim uArch: core:  7, cta: 5 initialized @(23717,0)
GPGPU-Sim uArch: Shader 10 finished CTA #4 (23752,0), 5 CTAs running
GPGPU-Sim uArch: core: 10, cta: 4 initialized @(23753,0)
GPGPU-Sim PTX: 6700000 instructions simulated : ctaid=(1,17,0) tid=(3,4,0)
GPGPU-Sim PTX: 6800000 instructions simulated : ctaid=(3,17,0) tid=(10,2,0)
GPGPU-Sim uArch: cycles simulated: 24000  inst.: 6782080 (ipc=282.6) sim_rate=55590 (inst/sec) elapsed = 0:0:02:02 / Tue May 12 21:13:42 2015
GPGPU-Sim uArch: Shader 12 finished CTA #0 (24041,0), 5 CTAs running
GPGPU-Sim uArch: core: 12, cta: 0 initialized @(24042,0)
GPGPU-Sim PTX: 6900000 instructions simulated : ctaid=(0,18,0) tid=(0,11,0)
GPGPU-Sim uArch: Shader 12 finished CTA #2 (24150,0), 5 CTAs running
GPGPU-Sim uArch: core: 12, cta: 2 initialized @(24151,0)
GPGPU-Sim uArch: Shader 12 finished CTA #1 (24165,0), 5 CTAs running
GPGPU-Sim uArch: core: 12, cta: 1 initialized @(24166,0)
GPGPU-Sim uArch: Shader 12 finished CTA #3 (24236,0), 5 CTAs running
GPGPU-Sim uArch: core: 12, cta: 3 initialized @(24237,0)
GPGPU-Sim PTX: 7000000 instructions simulated : ctaid=(3,24,0) tid=(10,2,0)
GPGPU-Sim uArch: Shader 12 finished CTA #5 (24244,0), 5 CTAs running
GPGPU-Sim uArch: core: 12, cta: 5 initialized @(24245,0)
GPGPU-Sim uArch: Shader 12 finished CTA #4 (24260,0), 5 CTAs running
GPGPU-Sim uArch: core: 12, cta: 4 initialized @(24261,0)
GPGPU-Sim PTX: 7100000 instructions simulated : ctaid=(0,2,0) tid=(9,12,0)
GPGPU-Sim uArch: Shader 0 finished CTA #0 (24392,0), 5 CTAs running
GPGPU-Sim uArch: core:  0, cta: 0 initialized @(24393,0)
GPGPU-Sim uArch: Shader 0 finished CTA #1 (24413,0), 5 CTAs running
GPGPU-Sim uArch: core:  0, cta: 1 initialized @(24414,0)
GPGPU-Sim uArch: Shader 0 finished CTA #3 (24477,0), 5 CTAs running
GPGPU-Sim uArch: core:  0, cta: 3 initialized @(24478,0)
GPGPU-Sim PTX: 7200000 instructions simulated : ctaid=(4,17,0) tid=(8,3,0)
GPGPU-Sim uArch: cycles simulated: 24500  inst.: 7172233 (ipc=292.7) sim_rate=56474 (inst/sec) elapsed = 0:0:02:07 / Tue May 12 21:13:47 2015
GPGPU-Sim uArch: Shader 0 finished CTA #2 (24557,0), 5 CTAs running
GPGPU-Sim uArch: core:  0, cta: 2 initialized @(24558,0)
GPGPU-Sim uArch: Shader 0 finished CTA #5 (24569,0), 5 CTAs running
GPGPU-Sim uArch: core:  0, cta: 5 initialized @(24570,0)
GPGPU-Sim uArch: Shader 0 finished CTA #4 (24586,0), 5 CTAs running
GPGPU-Sim uArch: core:  0, cta: 4 initialized @(24587,0)
GPGPU-Sim PTX: 7300000 instructions simulated : ctaid=(3,25,0) tid=(12,12,0)
GPGPU-Sim uArch: Shader 3 finished CTA #0 (24670,0), 5 CTAs running
GPGPU-Sim uArch: Shader 11 finished CTA #0 (24670,0), 5 CTAs running
GPGPU-Sim uArch: core:  3, cta: 0 initialized @(24671,0)
GPGPU-Sim uArch: core: 11, cta: 0 initialized @(24671,0)
GPGPU-Sim uArch: Shader 14 finished CTA #0 (24687,0), 5 CTAs running
GPGPU-Sim uArch: core: 14, cta: 0 initialized @(24688,0)
GPGPU-Sim uArch: Shader 3 finished CTA #2 (24714,0), 5 CTAs running
GPGPU-Sim uArch: core:  3, cta: 2 initialized @(24715,0)
GPGPU-Sim uArch: Shader 11 finished CTA #2 (24721,0), 5 CTAs running
GPGPU-Sim uArch: core: 11, cta: 2 initialized @(24722,0)
GPGPU-Sim uArch: Shader 14 finished CTA #2 (24722,0), 5 CTAs running
GPGPU-Sim uArch: core: 14, cta: 2 initialized @(24723,0)
GPGPU-Sim PTX: 7400000 instructions simulated : ctaid=(5,22,0) tid=(3,9,0)
GPGPU-Sim uArch: Shader 11 finished CTA #3 (24747,0), 5 CTAs running
GPGPU-Sim uArch: core: 11, cta: 3 initialized @(24748,0)
GPGPU-Sim uArch: Shader 3 finished CTA #3 (24782,0), 5 CTAs running
GPGPU-Sim uArch: core:  3, cta: 3 initialized @(24783,0)
GPGPU-Sim uArch: Shader 11 finished CTA #1 (24784,0), 5 CTAs running
GPGPU-Sim uArch: core: 11, cta: 1 initialized @(24785,0)
GPGPU-Sim uArch: Shader 3 finished CTA #1 (24803,0), 5 CTAs running
GPGPU-Sim uArch: core:  3, cta: 1 initialized @(24804,0)
GPGPU-Sim uArch: Shader 14 finished CTA #3 (24806,0), 5 CTAs running
GPGPU-Sim uArch: core: 14, cta: 3 initialized @(24807,0)
GPGPU-Sim PTX: 7500000 instructions simulated : ctaid=(4,20,0) tid=(7,5,0)
GPGPU-Sim uArch: Shader 14 finished CTA #1 (24834,0), 5 CTAs running
GPGPU-Sim uArch: core: 14, cta: 1 initialized @(24835,0)
GPGPU-Sim uArch: Shader 14 finished CTA #4 (24892,0), 5 CTAs running
GPGPU-Sim uArch: Shader 3 finished CTA #5 (24896,0), 5 CTAs running
GPGPU-Sim uArch: Shader 11 finished CTA #4 (24920,0), 5 CTAs running
GPGPU-Sim uArch: Shader 3 finished CTA #4 (24923,0), 4 CTAs running
GPGPU-Sim uArch: Shader 14 finished CTA #5 (24927,0), 4 CTAs running
GPGPU-Sim PTX: 7600000 instructions simulated : ctaid=(1,20,0) tid=(11,1,0)
GPGPU-Sim uArch: Shader 13 finished CTA #2 (24937,0), 5 CTAs running
GPGPU-Sim uArch: Shader 13 finished CTA #0 (24949,0), 4 CTAs running
GPGPU-Sim uArch: Shader 13 finished CTA #1 (24951,0), 3 CTAs running
GPGPU-Sim uArch: Shader 11 finished CTA #5 (24953,0), 4 CTAs running
GPGPU-Sim uArch: Shader 13 finished CTA #3 (24988,0), 2 CTAs running
GPGPU-Sim uArch: cycles simulated: 25000  inst.: 7610788 (ipc=304.4) sim_rate=57223 (inst/sec) elapsed = 0:0:02:13 / Tue May 12 21:13:53 2015
GPGPU-Sim uArch: Shader 13 finished CTA #4 (25018,0), 1 CTAs running
GPGPU-Sim uArch: Shader 13 finished CTA #5 (25059,0), 0 CTAs running
GPGPU-Sim uArch: Shader 13 empty (release kernel 1 '_Z17executeFirstLayerPfS_S_').
GPGPU-Sim PTX: 7700000 instructions simulated : ctaid=(3,16,0) tid=(2,11,0)
GPGPU-Sim PTX: 7800000 instructions simulated : ctaid=(0,17,0) tid=(6,7,0)
GPGPU-Sim PTX: 7900000 instructions simulated : ctaid=(2,22,0) tid=(10,3,0)
GPGPU-Sim PTX: 8000000 instructions simulated : ctaid=(4,22,0) tid=(1,0,0)
GPGPU-Sim uArch: cycles simulated: 25500  inst.: 8059145 (ipc=316.0) sim_rate=57979 (inst/sec) elapsed = 0:0:02:19 / Tue May 12 21:13:59 2015
GPGPU-Sim PTX: 8100000 instructions simulated : ctaid=(0,21,0) tid=(5,9,0)
GPGPU-Sim PTX: 8200000 instructions simulated : ctaid=(0,16,0) tid=(9,5,0)
GPGPU-Sim PTX: 8300000 instructions simulated : ctaid=(2,26,0) tid=(0,2,0)
GPGPU-Sim PTX: 8400000 instructions simulated : ctaid=(1,24,0) tid=(4,11,0)
GPGPU-Sim PTX: 8500000 instructions simulated : ctaid=(2,17,0) tid=(8,7,0)
GPGPU-Sim uArch: cycles simulated: 26000  inst.: 8529472 (ipc=328.1) sim_rate=58823 (inst/sec) elapsed = 0:0:02:25 / Tue May 12 21:14:05 2015
GPGPU-Sim PTX: 8600000 instructions simulated : ctaid=(2,18,0) tid=(12,3,0)
GPGPU-Sim PTX: 8700000 instructions simulated : ctaid=(4,20,0) tid=(3,0,0)
GPGPU-Sim PTX: 8800000 instructions simulated : ctaid=(4,19,0) tid=(7,9,0)
GPGPU-Sim PTX: 8900000 instructions simulated : ctaid=(5,18,0) tid=(11,5,0)
GPGPU-Sim PTX: 9000000 instructions simulated : ctaid=(4,20,0) tid=(2,2,0)
GPGPU-Sim uArch: cycles simulated: 26500  inst.: 9019741 (ipc=340.4) sim_rate=59733 (inst/sec) elapsed = 0:0:02:31 / Tue May 12 21:14:11 2015
GPGPU-Sim PTX: 9100000 instructions simulated : ctaid=(1,16,0) tid=(6,11,0)
GPGPU-Sim PTX: 9200000 instructions simulated : ctaid=(5,20,0) tid=(9,1,0)
GPGPU-Sim PTX: 9300000 instructions simulated : ctaid=(5,27,0) tid=(11,9,0)
GPGPU-Sim PTX: 9400000 instructions simulated : ctaid=(4,15,0) tid=(0,4,0)
GPGPU-Sim PTX: 9500000 instructions simulated : ctaid=(4,22,0) tid=(11,10,0)
GPGPU-Sim uArch: cycles simulated: 27000  inst.: 9552682 (ipc=353.8) sim_rate=60460 (inst/sec) elapsed = 0:0:02:38 / Tue May 12 21:14:18 2015
GPGPU-Sim PTX: 9600000 instructions simulated : ctaid=(5,18,0) tid=(5,7,0)
GPGPU-Sim PTX: 9700000 instructions simulated : ctaid=(4,27,0) tid=(11,3,0)
GPGPU-Sim PTX: 9800000 instructions simulated : ctaid=(0,17,0) tid=(1,3,0)
GPGPU-Sim uArch: Shader 1 finished CTA #2 (27244,0), 5 CTAs running
GPGPU-Sim uArch: Shader 2 finished CTA #2 (27265,0), 5 CTAs running
GPGPU-Sim uArch: Shader 2 finished CTA #1 (27287,0), 4 CTAs running
GPGPU-Sim PTX: 9900000 instructions simulated : ctaid=(0,21,0) tid=(6,4,0)
GPGPU-Sim uArch: Shader 1 finished CTA #3 (27308,0), 4 CTAs running
GPGPU-Sim uArch: Shader 2 finished CTA #4 (27399,0), 3 CTAs running
GPGPU-Sim PTX: 10000000 instructions simulated : ctaid=(2,21,0) tid=(6,0,0)
GPGPU-Sim uArch: Shader 2 finished CTA #5 (27466,0), 2 CTAs running
GPGPU-Sim uArch: cycles simulated: 27500  inst.: 10050330 (ipc=365.5) sim_rate=61282 (inst/sec) elapsed = 0:0:02:44 / Tue May 12 21:14:24 2015
GPGPU-Sim PTX: 10100000 instructions simulated : ctaid=(5,17,0) tid=(6,6,0)
GPGPU-Sim PTX: 10200000 instructions simulated : ctaid=(1,23,0) tid=(3,11,0)
GPGPU-Sim PTX: 10300000 instructions simulated : ctaid=(2,21,0) tid=(6,6,0)
GPGPU-Sim uArch: Shader 1 finished CTA #5 (27766,0), 3 CTAs running
GPGPU-Sim uArch: Shader 1 finished CTA #0 (27797,0), 2 CTAs running
GPGPU-Sim PTX: 10400000 instructions simulated : ctaid=(3,24,0) tid=(1,2,0)
GPGPU-Sim uArch: Shader 1 finished CTA #4 (27856,0), 1 CTAs running
GPGPU-Sim uArch: Shader 2 finished CTA #0 (27900,0), 1 CTAs running
GPGPU-Sim uArch: Shader 2 finished CTA #3 (27914,0), 0 CTAs running
GPGPU-Sim uArch: Shader 2 empty (release kernel 1 '_Z17executeFirstLayerPfS_S_').
GPGPU-Sim PTX: 10500000 instructions simulated : ctaid=(3,26,0) tid=(4,10,0)
GPGPU-Sim uArch: cycles simulated: 28000  inst.: 10511307 (ipc=375.4) sim_rate=61831 (inst/sec) elapsed = 0:0:02:50 / Tue May 12 21:14:30 2015
GPGPU-Sim uArch: Shader 9 finished CTA #0 (28002,0), 5 CTAs running
GPGPU-Sim PTX: 10600000 instructions simulated : ctaid=(1,26,0) tid=(11,5,0)
GPGPU-Sim uArch: Shader 9 finished CTA #3 (28046,0), 4 CTAs running
GPGPU-Sim PTX: 10700000 instructions simulated : ctaid=(1,23,0) tid=(3,9,0)
GPGPU-Sim uArch: Shader 8 finished CTA #2 (28190,0), 5 CTAs running
GPGPU-Sim uArch: Shader 9 finished CTA #1 (28191,0), 3 CTAs running
GPGPU-Sim uArch: Shader 8 finished CTA #0 (28261,0), 4 CTAs running
GPGPU-Sim PTX: 10800000 instructions simulated : ctaid=(2,24,0) tid=(1,10,0)
GPGPU-Sim uArch: Shader 6 finished CTA #0 (28380,0), 5 CTAs running
GPGPU-Sim PTX: 10900000 instructions simulated : ctaid=(3,17,0) tid=(1,0,0)
GPGPU-Sim uArch: Shader 6 finished CTA #2 (28471,0), 4 CTAs running
GPGPU-Sim PTX: 11000000 instructions simulated : ctaid=(4,17,0) tid=(4,7,0)
GPGPU-Sim uArch: cycles simulated: 28500  inst.: 10963376 (ipc=384.7) sim_rate=62291 (inst/sec) elapsed = 0:0:02:56 / Tue May 12 21:14:36 2015
GPGPU-Sim uArch: Shader 6 finished CTA #3 (28520,0), 3 CTAs running
GPGPU-Sim PTX: 11100000 instructions simulated : ctaid=(2,26,0) tid=(11,8,0)
GPGPU-Sim uArch: Shader 6 finished CTA #1 (28633,0), 2 CTAs running
GPGPU-Sim uArch: Shader 9 finished CTA #5 (28689,0), 2 CTAs running
GPGPU-Sim uArch: Shader 6 finished CTA #5 (28722,0), 1 CTAs running
GPGPU-Sim uArch: Shader 9 finished CTA #4 (28723,0), 1 CTAs running
GPGPU-Sim uArch: Shader 9 finished CTA #2 (28776,0), 0 CTAs running
GPGPU-Sim uArch: Shader 9 empty (release kernel 1 '_Z17executeFirstLayerPfS_S_').
GPGPU-Sim PTX: 11200000 instructions simulated : ctaid=(2,22,0) tid=(8,10,0)
GPGPU-Sim uArch: Shader 8 finished CTA #3 (28813,0), 3 CTAs running
GPGPU-Sim uArch: Shader 7 finished CTA #0 (28818,0), 5 CTAs running
GPGPU-Sim uArch: Shader 1 finished CTA #1 (28840,0), 0 CTAs running
GPGPU-Sim uArch: Shader 1 empty (release kernel 1 '_Z17executeFirstLayerPfS_S_').
GPGPU-Sim uArch: Shader 4 finished CTA #2 (28876,0), 5 CTAs running
GPGPU-Sim uArch: Shader 4 finished CTA #0 (28884,0), 4 CTAs running
GPGPU-Sim uArch: Shader 5 finished CTA #0 (28896,0), 5 CTAs running
GPGPU-Sim uArch: Shader 6 finished CTA #4 (28912,0), 0 CTAs running
GPGPU-Sim uArch: Shader 6 empty (release kernel 1 '_Z17executeFirstLayerPfS_S_').
GPGPU-Sim PTX: 11300000 instructions simulated : ctaid=(4,27,0) tid=(10,10,0)
GPGPU-Sim uArch: Shader 7 finished CTA #1 (28956,0), 4 CTAs running
GPGPU-Sim uArch: cycles simulated: 29000  inst.: 11309572 (ipc=390.0) sim_rate=62483 (inst/sec) elapsed = 0:0:03:01 / Tue May 12 21:14:41 2015
GPGPU-Sim uArch: Shader 5 finished CTA #3 (29058,0), 4 CTAs running
GPGPU-Sim uArch: Shader 4 finished CTA #1 (29084,0), 3 CTAs running
GPGPU-Sim PTX: 11400000 instructions simulated : ctaid=(2,23,0) tid=(2,3,0)
GPGPU-Sim uArch: Shader 5 finished CTA #2 (29114,0), 3 CTAs running
GPGPU-Sim uArch: Shader 8 finished CTA #1 (29161,0), 2 CTAs running
GPGPU-Sim uArch: Shader 8 finished CTA #4 (29191,0), 1 CTAs running
GPGPU-Sim uArch: Shader 5 finished CTA #1 (29215,0), 2 CTAs running
GPGPU-Sim uArch: Shader 4 finished CTA #3 (29266,0), 2 CTAs running
GPGPU-Sim PTX: 11500000 instructions simulated : ctaid=(3,24,0) tid=(2,10,0)
GPGPU-Sim uArch: Shader 7 finished CTA #2 (29281,0), 3 CTAs running
GPGPU-Sim uArch: Shader 7 finished CTA #3 (29327,0), 2 CTAs running
GPGPU-Sim uArch: Shader 7 finished CTA #4 (29434,0), 1 CTAs running
GPGPU-Sim uArch: cycles simulated: 29500  inst.: 11554031 (ipc=391.7) sim_rate=62793 (inst/sec) elapsed = 0:0:03:04 / Tue May 12 21:14:44 2015
GPGPU-Sim PTX: 11600000 instructions simulated : ctaid=(2,26,0) tid=(6,1,0)
GPGPU-Sim uArch: Shader 4 finished CTA #5 (29513,0), 1 CTAs running
GPGPU-Sim uArch: Shader 4 finished CTA #4 (29538,0), 0 CTAs running
GPGPU-Sim uArch: Shader 4 empty (release kernel 1 '_Z17executeFirstLayerPfS_S_').
GPGPU-Sim uArch: Shader 8 finished CTA #5 (29575,0), 0 CTAs running
GPGPU-Sim uArch: Shader 8 empty (release kernel 1 '_Z17executeFirstLayerPfS_S_').
GPGPU-Sim uArch: Shader 12 finished CTA #2 (29588,0), 5 CTAs running
GPGPU-Sim uArch: Shader 12 finished CTA #0 (29604,0), 4 CTAs running
GPGPU-Sim uArch: Shader 0 finished CTA #0 (29631,0), 5 CTAs running
GPGPU-Sim uArch: Shader 0 finished CTA #1 (29659,0), 4 CTAs running
GPGPU-Sim uArch: Shader 12 finished CTA #3 (29659,0), 3 CTAs running
GPGPU-Sim uArch: Shader 5 finished CTA #4 (29691,0), 1 CTAs running
GPGPU-Sim uArch: Shader 12 finished CTA #1 (29717,0), 2 CTAs running
GPGPU-Sim uArch: Shader 7 finished CTA #5 (29729,0), 0 CTAs running
GPGPU-Sim uArch: Shader 7 empty (release kernel 1 '_Z17executeFirstLayerPfS_S_').
GPGPU-Sim uArch: Shader 0 finished CTA #3 (29744,0), 3 CTAs running
GPGPU-Sim uArch: Shader 12 finished CTA #5 (29744,0), 1 CTAs running
GPGPU-Sim uArch: Shader 0 finished CTA #2 (29799,0), 2 CTAs running
GPGPU-Sim uArch: Shader 11 finished CTA #0 (29863,0), 3 CTAs running
GPGPU-Sim uArch: Shader 5 finished CTA #5 (29881,0), 0 CTAs running
GPGPU-Sim uArch: Shader 5 empty (release kernel 1 '_Z17executeFirstLayerPfS_S_').
GPGPU-Sim uArch: Shader 14 finished CTA #0 (29901,0), 3 CTAs running
GPGPU-Sim uArch: Shader 3 finished CTA #0 (29908,0), 3 CTAs running
GPGPU-Sim uArch: Shader 0 finished CTA #5 (29950,0), 1 CTAs running
GPGPU-Sim uArch: Shader 11 finished CTA #2 (29952,0), 2 CTAs running
GPGPU-Sim uArch: Shader 14 finished CTA #2 (29979,0), 2 CTAs running
GPGPU-Sim uArch: cycles simulated: 30000  inst.: 11648592 (ipc=388.3) sim_rate=62626 (inst/sec) elapsed = 0:0:03:06 / Tue May 12 21:14:46 2015
GPGPU-Sim uArch: Shader 3 finished CTA #2 (30009,0), 2 CTAs running
GPGPU-Sim uArch: Shader 12 finished CTA #4 (30117,0), 0 CTAs running
GPGPU-Sim uArch: Shader 12 empty (release kernel 1 '_Z17executeFirstLayerPfS_S_').
GPGPU-Sim PTX: 11700000 instructions simulated : ctaid=(1,20,0) tid=(6,6,0)
GPGPU-Sim uArch: Shader 11 finished CTA #3 (30153,0), 1 CTAs running
GPGPU-Sim uArch: Shader 11 finished CTA #1 (30158,0), 0 CTAs running
GPGPU-Sim uArch: Shader 11 empty (release kernel 1 '_Z17executeFirstLayerPfS_S_').
GPGPU-Sim uArch: Shader 14 finished CTA #3 (30159,0), 1 CTAs running
GPGPU-Sim uArch: Shader 3 finished CTA #3 (30166,0), 1 CTAs running
GPGPU-Sim uArch: Shader 3 finished CTA #1 (30181,0), 0 CTAs running
GPGPU-Sim uArch: Shader 3 empty (release kernel 1 '_Z17executeFirstLayerPfS_S_').
GPGPU-Sim uArch: Shader 14 finished CTA #1 (30206,0), 0 CTAs running
GPGPU-Sim uArch: Shader 14 empty (release kernel 1 '_Z17executeFirstLayerPfS_S_').
GPGPU-Sim uArch: Shader 0 finished CTA #4 (30271,0), 0 CTAs running
GPGPU-Sim uArch: Shader 0 empty (release kernel 1 '_Z17executeFirstLayerPfS_S_').
GPGPU-Sim uArch: Shader 10 finished CTA #3 (30615,0), 5 CTAs running
GPGPU-Sim uArch: Shader 10 finished CTA #0 (30655,0), 4 CTAs running
GPGPU-Sim uArch: Shader 10 finished CTA #2 (30691,0), 3 CTAs running
GPGPU-Sim uArch: Shader 10 finished CTA #1 (30734,0), 2 CTAs running
GPGPU-Sim uArch: Shader 10 finished CTA #4 (30968,0), 1 CTAs running
GPGPU-Sim uArch: cycles simulated: 31000  inst.: 11694074 (ipc=377.2) sim_rate=62535 (inst/sec) elapsed = 0:0:03:07 / Tue May 12 21:14:47 2015
GPGPU-Sim uArch: Shader 10 finished CTA #5 (31025,0), 0 CTAs running
GPGPU-Sim uArch: Shader 10 empty (release kernel 1 '_Z17executeFirstLayerPfS_S_').
GPGPU-Sim uArch: GPU detected kernel '_Z17executeFirstLayerPfS_S_' finished on shader 10.
kernel_name = _Z17executeFirstLayerPfS_S_ 
kernel_launch_uid = 1 
gpu_sim_cycle = 31026
gpu_sim_insn = 11694074
gpu_ipc =     376.9121
gpu_tot_sim_cycle = 31026
gpu_tot_sim_insn = 11694074
gpu_tot_ipc =     376.9121
gpu_tot_issued_cta = 0
gpu_stall_dramfull = 86400
gpu_stall_icnt2sh    = 193151
gpu_total_sim_rate=62535

========= Core cache stats =========
L1I_cache:
	L1I_total_cache_accesses = 41395
	L1I_total_cache_misses = 403
	L1I_total_cache_miss_rate = 0.0097
	L1I_total_cache_pending_hits = 0
	L1I_total_cache_reservation_fails = 0
L1D_cache:
	L1D_cache_core[0]: Access = 7241, Miss = 1976, Miss_rate = 0.273, Pending_hits = 167, Reservation_fails = 14864
	L1D_cache_core[1]: Access = 7177, Miss = 1786, Miss_rate = 0.249, Pending_hits = 87, Reservation_fails = 11661
	L1D_cache_core[2]: Access = 7167, Miss = 1693, Miss_rate = 0.236, Pending_hits = 74, Reservation_fails = 10339
	L1D_cache_core[3]: Access = 5986, Miss = 2022, Miss_rate = 0.338, Pending_hits = 63, Reservation_fails = 14802
	L1D_cache_core[4]: Access = 7242, Miss = 1900, Miss_rate = 0.262, Pending_hits = 86, Reservation_fails = 12605
	L1D_cache_core[5]: Access = 7240, Miss = 1872, Miss_rate = 0.259, Pending_hits = 101, Reservation_fails = 11870
	L1D_cache_core[6]: Access = 7176, Miss = 1787, Miss_rate = 0.249, Pending_hits = 123, Reservation_fails = 12271
	L1D_cache_core[7]: Access = 7216, Miss = 1826, Miss_rate = 0.253, Pending_hits = 121, Reservation_fails = 13559
	L1D_cache_core[8]: Access = 7211, Miss = 1870, Miss_rate = 0.259, Pending_hits = 89, Reservation_fails = 13172
	L1D_cache_core[9]: Access = 7253, Miss = 1699, Miss_rate = 0.234, Pending_hits = 152, Reservation_fails = 11635
	L1D_cache_core[10]: Access = 7185, Miss = 2209, Miss_rate = 0.307, Pending_hits = 221, Reservation_fails = 13345
	L1D_cache_core[11]: Access = 5984, Miss = 2001, Miss_rate = 0.334, Pending_hits = 76, Reservation_fails = 14909
	L1D_cache_core[12]: Access = 7270, Miss = 1911, Miss_rate = 0.263, Pending_hits = 164, Reservation_fails = 14097
	L1D_cache_core[13]: Access = 3603, Miss = 1980, Miss_rate = 0.550, Pending_hits = 20, Reservation_fails = 15303
	L1D_cache_core[14]: Access = 5981, Miss = 2017, Miss_rate = 0.337, Pending_hits = 71, Reservation_fails = 15348
	L1D_total_cache_accesses = 100932
	L1D_total_cache_misses = 28549
	L1D_total_cache_miss_rate = 0.2829
	L1D_total_cache_pending_hits = 1615
	L1D_total_cache_reservation_fails = 199780
	L1D_cache_data_port_util = 0.161
	L1D_cache_fill_port_util = 0.062
L1C_cache:
	L1C_total_cache_accesses = 4704
	L1C_total_cache_misses = 211
	L1C_total_cache_miss_rate = 0.0449
	L1C_total_cache_pending_hits = 0
	L1C_total_cache_reservation_fails = 0
L1T_cache:
	L1T_total_cache_accesses = 0
	L1T_total_cache_misses = 0
	L1T_total_cache_pending_hits = 0
	L1T_total_cache_reservation_fails = 0

Total_core_cache_stats:
	Total_core_cache_stats_breakdown[GLOBAL_ACC_R][HIT] = 70768
	Total_core_cache_stats_breakdown[GLOBAL_ACC_R][HIT_RESERVED] = 1615
	Total_core_cache_stats_breakdown[GLOBAL_ACC_R][MISS] = 27499
	Total_core_cache_stats_breakdown[GLOBAL_ACC_R][RESERVATION_FAIL] = 198090
	Total_core_cache_stats_breakdown[CONST_ACC_R][HIT] = 4493
	Total_core_cache_stats_breakdown[CONST_ACC_R][MISS] = 211
	Total_core_cache_stats_breakdown[GLOBAL_ACC_W][MISS] = 1050
	Total_core_cache_stats_breakdown[GLOBAL_ACC_W][RESERVATION_FAIL] = 1690
	Total_core_cache_stats_breakdown[INST_ACC_R][HIT] = 40992
	Total_core_cache_stats_breakdown[INST_ACC_R][MISS] = 403
Shader 0 warp_id issue ditsribution:
warp_id:
0, 1, 2, 3, 4, 5, 
distro:
874, 874, 874, 874, 874, 874, 
gpgpu_n_tot_thrd_icount = 18794496
gpgpu_n_tot_w_icount = 73416
gpgpu_n_stall_shd_mem = 291976
gpgpu_n_mem_read_local = 0
gpgpu_n_mem_write_local = 0
gpgpu_n_mem_read_global = 27499
gpgpu_n_mem_write_global = 1050
gpgpu_n_mem_texture = 0
gpgpu_n_mem_const = 45
gpgpu_n_load_insn  = 1447992
gpgpu_n_store_insn = 28392
gpgpu_n_shmem_insn = 0
gpgpu_n_tex_insn = 0
gpgpu_n_const_mem_insn = 709800
gpgpu_n_param_mem_insn = 85176
gpgpu_n_shmem_bkconflict = 0
gpgpu_n_cache_bkconflict = 0
gpgpu_n_intrawarp_mshr_merge = 0
gpgpu_n_cmem_portconflict = 0
gpgpu_stall_shd_mem[c_mem][bk_conf] = 0
gpgpu_stall_shd_mem[c_mem][mshr_rc] = 0
gpgpu_stall_shd_mem[c_mem][icnt_rc] = 0
gpgpu_stall_shd_mem[c_mem][data_port_stall] = 0
gpgpu_stall_shd_mem[t_mem][mshr_rc] = 0
gpgpu_stall_shd_mem[t_mem][icnt_rc] = 0
gpgpu_stall_shd_mem[t_mem][data_port_stall] = 0
gpgpu_stall_shd_mem[s_mem][bk_conf] = 0
gpgpu_stall_shd_mem[gl_mem][bk_conf] = 0
gpgpu_stall_shd_mem[gl_mem][coal_stall] = 291976
gpgpu_stall_shd_mem[gl_mem][data_port_stall] = 0
gpgpu_stall_shd_mem[g_mem_ld][mshr_rc] = 0
gpgpu_stall_shd_mem[g_mem_ld][icnt_rc] = 0
gpgpu_stall_shd_mem[g_mem_ld][wb_icnt_rc] = 0
gpgpu_stall_shd_mem[g_mem_ld][wb_rsrv_fail] = 0
gpgpu_stall_shd_mem[g_mem_st][mshr_rc] = 0
gpgpu_stall_shd_mem[g_mem_st][icnt_rc] = 0
gpgpu_stall_shd_mem[g_mem_st][wb_icnt_rc] = 0
gpgpu_stall_shd_mem[g_mem_st][wb_rsrv_fail] = 0
gpgpu_stall_shd_mem[l_mem_ld][mshr_rc] = 0
gpgpu_stall_shd_mem[l_mem_ld][icnt_rc] = 0
gpgpu_stall_shd_mem[l_mem_ld][wb_icnt_rc] = 0
gpgpu_stall_shd_mem[l_mem_ld][wb_rsrv_fail] = 0
gpgpu_stall_shd_mem[l_mem_st][mshr_rc] = 0
gpgpu_stall_shd_mem[l_mem_st][icnt_rc] = 0
gpgpu_stall_shd_mem[l_mem_ld][wb_icnt_rc] = 0
gpgpu_stall_shd_mem[l_mem_ld][wb_rsrv_fail] = 0
gpu_reg_bank_conflict_stalls = 0
Warp Occupancy Distribution:
Stall:45408	W0_Idle:18815	W0_Scoreboard:302558	W1:0	W2:0	W3:0	W4:0	W5:29	W6:0	W7:0	W8:0	W9:0	W10:0	W11:29	W12:0	W13:58	W14:0	W15:14	W16:43	W17:29	W18:87	W19:29	W20:72	W21:57	W22:101	W23:58	W24:29	W25:115	W26:143	W27:130	W28:58	W29:86	W30:158	W31:87	W32:101	W33:72	W34:72	W35:43	W36:86	W37:116	W38:116	W39:0	W40:87	W41:72	W42:72	W43:159	W44:145	W45:116	W46:87	W47:87	W48:58	W49:87	W50:145	W51:87	W52:58	W53:87	W54:29	W55:145	W56:101	W57:29	W58:58	W59:58	W60:0	W61:58	W62:0	W63:87	W64:58	W65:203	W66:116	W67:0	W68:0	W69:29	W70:0	W71:0	W72:0	W73:29	W74:0	W75:0	W76:0	W77:0	W78:0	W79:29	W80:0	W81:0	W82:0	W83:43	W84:0	W85:0	W86:43	W87:0	W88:0	W89:0	W90:14	W91:0	W92:0	W93:0	W94:0	W95:0	W96:14	W97:0	W98:0	W99:0	W100:14	W101:0	W102:0	W103:56	W104:98	W105:28	W106:42	W107:0	W108:28	W109:0	W110:28	W111:28	W112:14	W113:71	W114:70	W115:14	W116:42	W117:28	W118:42	W119:70	W120:42	W121:28	W122:42	W123:42	W124:56	W125:70	W126:99	W127:57	W128:57	W129:42	W130:0	W131:56	W132:56	W133:86	W134:43	W135:57	W136:57	W137:71	W138:42	W139:143	W140:86	W141:28	W142:85	W143:158	W144:100	W145:14	W146:28	W147:71	W148:72	W149:57	W150:14	W151:42	W152:14	W153:43	W154:29	W155:0	W156:28	W157:0	W158:14	W159:0	W160:0	W161:0	W162:0	W163:0	W164:14	W165:0	W166:0	W167:0	W168:0	W169:66192	W170:0	W171:0	W172:0	W173:0	W174:0	W175:0	W176:0	W177:0	W178:0	W179:0	W180:0	W181:0	W182:0	W183:0	W184:0	W185:0	W186:0	W187:0	W188:0	W189:0	W190:0	W191:0	W192:0	W193:0	W194:0	W195:0	W196:0	W197:0	W198:0	W199:0	W200:0	W201:0	W202:0	W203:0	W204:0	W205:0	W206:0	W207:0	W208:0	W209:0	W210:0	W211:0	W212:0	W213:0	W214:0	W215:0	W216:0	W217:0	W218:0	W219:0	W220:0	W221:0	W222:0	W223:0	W224:0	W225:0	W226:0	W227:0	W228:0	W229:0	W230:0	W231:0	W232:0	W233:0	W234:0	W235:0	W236:0	W237:0	W238:0	W239:0	W240:0	W241:0	W242:0	W243:0	W244:0	W245:0	W246:0	W247:0	W248:0	W249:0	W250:0	W251:0	W252:0	W253:0	W254:0	W255:0	W256:0
traffic_breakdown_coretomem[CONST_ACC_R] = 360 {8:45,}
traffic_breakdown_coretomem[GLOBAL_ACC_R] = 219992 {8:27499,}
traffic_breakdown_coretomem[GLOBAL_ACC_W] = 129360 {40:84,72:84,136:882,}
traffic_breakdown_coretomem[INST_ACC_R] = 840 {8:105,}
traffic_breakdown_memtocore[CONST_ACC_R] = 3240 {72:45,}
traffic_breakdown_memtocore[GLOBAL_ACC_R] = 3739864 {136:27499,}
traffic_breakdown_memtocore[GLOBAL_ACC_W] = 8400 {8:1050,}
traffic_breakdown_memtocore[INST_ACC_R] = 14280 {136:105,}
maxmrqlatency = 116 
maxdqlatency = 0 
maxmflatency = 889 
averagemflatency = 357 
max_icnt2mem_latency = 616 
max_icnt2sh_latency = 31025 
mrq_lat_table:1021 	376 	119 	342 	409 	222 	78 	0 	0 	0 	0 	0 	0 	0 	0 	0 	0 	0 	0 	0 	0 	0 	0 	0 	0 	0 	0 	0 	0 	0 	0 	0 	
dq_lat_table:0 	0 	0 	0 	0 	0 	0 	0 	0 	0 	0 	0 	0 	0 	0 	0 	0 	0 	0 	0 	0 	0 	0 	0 	0 	0 	0 	0 	0 	0 	0 	0 	
mf_lat_table:0 	0 	0 	0 	0 	0 	0 	6430 	18662 	3502 	0 	0 	0 	0 	0 	0 	0 	0 	0 	0 	0 	0 	0 	0 	0 	0 	0 	0 	0 	0 	0 	0 	
icnt2mem_lat_table:0 	0 	0 	9751 	2768 	3124 	5111 	6083 	1848 	14 	0 	0 	0 	0 	0 	0 	0 	0 	0 	0 	0 	0 	0 	0 	
icnt2sh_lat_table:0 	0 	0 	1064 	16404 	9581 	490 	5 	0 	0 	0 	0 	0 	0 	1050 	0 	0 	0 	0 	0 	0 	0 	0 	0 	
mf_lat_pw_table:0 	0 	0 	0 	0 	0 	0 	10 	51 	0 	0 	0 	0 	0 	0 	0 	0 	0 	0 	0 	0 	0 	0 	0 	0 	0 	0 	0 	0 	0 	0 	0 	
maximum concurrent accesses to same row:
dram[0]:         1         0         0         0         0         0         0         0         0         0         0         0         0         0         0         0 
dram[1]:         1         0         0         0         0         0         0         0         0         0         0         0         0         0         0         0 
dram[2]:         0         0         0         0         0         0         0         0         0         0         0         0         0         0         0         0 
dram[3]:         0         0         0         0         0         0         0         0         0         0         0         0         0         0         0         0 
dram[4]:         0         0         0         0         0         0         0         0         0         0         0         0         0         0         0         0 
dram[5]:         0         0         0         0         0         0         0         0         0         0         0         0         0         0         0         0 
maximum service time to same row:
dram[0]:       316         0         0         0      1462      1438      1819      2044     21706       807     21778     20852     27800     28410         0         0 
dram[1]:      2054         0         0         0      1457      1435      2029      2015     21027     22119     21841     20846     27959     28478         0         0 
dram[2]:     19050         0         0         0      1454      1460      1982      2007     20937     22102     21640     21652     27947     28338         0         0 
dram[3]:     20488         0         0         0      1450      1456      2094      2022     20879     21610     21638     22041     28004     28325         0         0 
dram[4]:         0         0         0         0      1446      1469      2091      2066       804     21916     20909     22099     27991     28147         0         0 
dram[5]:         0         0         0         0      1441      1466      2041      1981       809     21744     20931     21944     27979     28135         0         0 
average row accesses per activate:
dram[0]:  1.000000      -nan      -nan      -nan 10.000000 10.000000 32.000000 32.000000 44.000000 43.000000 65.000000 64.000000 63.000000 62.000000      -nan      -nan 
dram[1]:  3.000000      -nan      -nan      -nan 10.000000 10.000000 32.000000 32.000000 45.000000 46.000000 65.000000 66.000000 64.000000 57.000000      -nan      -nan 
dram[2]:  2.000000      -nan      -nan      -nan 10.000000 12.000000 32.000000 32.000000 44.000000 47.000000 64.000000 65.000000 61.000000 59.000000      -nan      -nan 
dram[3]:  1.000000      -nan      -nan      -nan 10.000000 12.000000 32.000000 32.000000 44.000000 46.000000 65.000000 65.000000 63.000000 57.000000      -nan      -nan 
dram[4]:      -nan      -nan      -nan      -nan 10.000000 12.000000 32.000000 32.000000 44.000000 46.000000 64.000000 64.000000 63.000000 59.000000      -nan      -nan 
dram[5]:      -nan      -nan      -nan      -nan 10.000000 12.000000 32.000000 32.000000 45.000000 46.000000 65.000000 65.000000 63.000000 58.000000      -nan      -nan 
average row locality = 2567/66 = 38.893940
number of total memory accesses made:
dram[0]:         0         0         0         0         0         0         0         0         0         0         0         0         0         0         0         0 
dram[1]:         0         0         0         0         0         0         0         0         0         0         0         0         0         0         0         0 
dram[2]:         0         0         0         0         0         0         0         0         0         0         0         0         0         0         0         0 
dram[3]:         0         0         0         0         0         0         0         0         0         0         0         0         0         0         0         0 
dram[4]:         0         0         0         0         0         0         0         0         0         0         0         0         0         0         0         0 
dram[5]:         0         0         0         0         0         0         0         0         0         0         0         0         0         0         0         0 
total accesses: 0
min_bank_accesses = 0!
min_chip_accesses = 0!
number of total read accesses:
dram[0]:         3         0         0         0        10        10        32        32        32        31        32        32        30        30         0         0 
dram[1]:         3         0         0         0        10        10        32        32        32        32        32        32        30        28         0         0 
dram[2]:         2         0         0         0        10        12        32        32        32        32        32        32        30        28         0         0 
dram[3]:         1         0         0         0        10        12        32        32        32        32        32        32        30        28         0         0 
dram[4]:         0         0         0         0        10        12        32        32        32        32        32        32        30        28         0         0 
[...]
traffic_breakdown_coretomem[CONST_ACC_R] = 600 {8:75,}
traffic_breakdown_coretomem[GLOBAL_ACC_R] = 1438040 {8:179755,}
traffic_breakdown_coretomem[GLOBAL_ACC_W] = 473760 {40:3864,72:784,136:1932,}
traffic_breakdown_coretomem[INST_ACC_R] = 3000 {8:375,}
traffic_breakdown_memtocore[CONST_ACC_R] = 5400 {72:75,}
traffic_breakdown_memtocore[GLOBAL_ACC_R] = 24446680 {136:179755,}
traffic_breakdown_memtocore[GLOBAL_ACC_W] = 52640 {8:6580,}
traffic_breakdown_memtocore[INST_ACC_R] = 51000 {136:375,}
maxmrqlatency = 127 
maxdqlatency = 0 
maxmflatency = 889 
averagemflatency = 180 
max_icnt2mem_latency = 616 
max_icnt2sh_latency = 3027378 
mrq_lat_table:7139 	765 	212 	596 	610 	272 	123 	0 	0 	0 	0 	0 	0 	0 	0 	0 	0 	0 	0 	0 	0 	0 	0 	0 	0 	0 	0 	0 	0 	0 	0 	0 	
dq_lat_table:0 	0 	0 	0 	0 	0 	0 	0 	0 	0 	0 	0 	0 	0 	0 	0 	0 	0 	0 	0 	0 	0 	0 	0 	0 	0 	0 	0 	0 	0 	0 	0 	
mf_lat_table:0 	0 	0 	0 	0 	0 	0 	159356 	23552 	3502 	0 	0 	0 	0 	0 	0 	0 	0 	0 	0 	0 	0 	0 	0 	0 	0 	0 	0 	0 	0 	0 	0 	
icnt2mem_lat_table:0 	0 	0 	167249 	3222 	3233 	5129 	6090 	1848 	14 	0 	0 	0 	0 	0 	0 	0 	0 	0 	0 	0 	0 	0 	0 	
icnt2sh_lat_table:0 	0 	0 	145445 	23751 	10139 	490 	5 	0 	0 	0 	0 	0 	0 	1050 	554 	1278 	679 	254 	525 	1050 	1190 	0 	0 	
mf_lat_pw_table:0 	0 	0 	0 	0 	0 	0 	5905 	149 	0 	0 	0 	0 	0 	0 	0 	0 	0 	0 	0 	0 	0 	0 	0 	0 	0 	0 	0 	0 	0 	0 	0 	
maximum concurrent accesses to same row:
dram[0]:        74        78        83        82        35        30        32        32        44        43        65        64        65        64        55        57 
dram[1]:        77        75        75        77        35        31        32        32        45        46        65        66        66        61        52        53 
dram[2]:        82        78        76        80        36        31        32        32        44        47        64        65        63        63        52        51 
dram[3]:        75        77        77        77        35        34        32        32        44        46        65        65        65        61        54        57 
dram[4]:        77        79        81        78        30        31        32        32        44        46        64        64        65        63        54        55 
dram[5]:        74        75        81        81        28        31        32        32        45        46        65        65        65        62        54        57 
maximum service time to same row:
dram[0]:     22930     19198     70326     71172    112928    115897     15271     16078   1498568   1706481     21778     20852     27800     28410       279       285 
dram[1]:     26142    145686     70319     71169    113308    116115     15094     16180     84670   2543683     21841     20846     27959     28478       284       285 
dram[2]:     19050     81034     71063     71291    113411    116340     15275     16412    792786   1045457     21640     21652     27947     28338      1577       424 
dram[3]:     20488     81349     71022     72026    115335    116363     15947     16075     81953   1506349     21638     22041     28004     28325       282       279 
dram[4]:     26151     26540     71079     72218    115407    116597     15779     14888   1558874   1199741     20909     22099     27991     28147       282       282 
dram[5]:     19312     28882     71160     72422    115972    116596     15891     17054    874605     85198     20931     21944     27979     28135      1190       294 
average row accesses per activate:
dram[0]: 18.333334 37.333332 57.500000 57.000000  2.878788  3.172414  3.428571  5.052631 16.285715 17.428572 48.500000 48.000000 48.500000 48.000000 43.500000 44.500000 
dram[1]: 28.250000 18.666666 53.500000 54.500000  3.518518  2.787879  3.310345  4.571429 23.000000 23.799999 48.500000 49.000000 49.000000 46.500000 42.000000 42.500000 
dram[2]: 38.666668 23.200001 54.000000 56.000000  3.800000  3.064516  4.173913  3.840000 12.888889 23.400000 48.000000 48.500000 47.500000 47.500000 42.000000 41.500000 
dram[3]: 36.333332 23.000000 54.500000 54.500000  3.800000  3.379310  4.000000  4.173913 25.200001 13.111111 48.500000 48.500000 48.500000 46.500000 43.000000 44.500000 
dram[4]: 37.000000 37.666668 56.500000 55.000000  2.935484  3.032258  4.173913  3.840000 24.200001 16.857143 48.000000 48.000000 48.500000 47.500000 43.000000 43.500000 
dram[5]: 36.000000 36.333332 56.500000 56.500000  3.296296  2.848485  4.000000  4.173913 17.285715 22.799999 48.500000 48.500000 48.500000 47.000000 43.000000 44.500000 
average row locality = 9717/860 = 11.298838
number of total memory accesses made:
dram[0]:         0         0         0         0         0         0         0         0         0         0         0         0         0         0         0         0 
dram[1]:         0         0         0         0         0         0         0         0         0         0         0         0         0         0         0         0 
dram[2]:         0         0         0         0         0         0         0         0         0         0         0         0         0         0         0         0 
dram[3]:         0         0         0         0         0         0         0         0         0         0         0         0         0         0         0         0 
dram[4]:         0         0         0         0         0         0         0         0         0         0         0         0         0         0         0         0 
dram[5]:         0         0         0         0         0         0         0         0         0         0         0         0         0         0         0         0 
total accesses: 0
min_bank_accesses = 0!
min_chip_accesses = 0!
number of total read accesses:
dram[0]:        68        66        64        64        74        74        96        96        94        93        64        64        64        64        64        64 
dram[1]:        68        68        64        64        74        74        96        96        94        93        64        64        64        64        64        64 
dram[2]:        66        68        64        64        74        76        96        96        94        92        64        64        64        64        64        64 
dram[3]:        66        68        64        64        74        76        96        96        94        92        64        64        64        64        64        64 
dram[4]:        66        66        64        64        74        76        96        96        94        92        64        64        64        64        64        64 
dram[5]:        66        66        64        64        74        76        96        96        94        92        64        64        64        64        64        64 
total reads: 7040
bank skew: 96/64 = 1.50
chip skew: 1175/1172 = 1.00
number of total write accesses:
dram[0]:        42        46        51        50        21        18         0         0        20        29        33        32        33        32        23        25 
dram[1]:        45        44        43        45        21        18         0         0        21        26        33        34        34        29        20        21 
dram[2]:        50        48        44        48        21        19         0         0        22        25        32        33        31        31        20        19 
dram[3]:        43        47        45        45        21        22         0         0        32        26        33        33        33        29        22        25 
dram[4]:        45        47        49        46        17        18         0         0        27        26        32        32        33        31        22        23 
dram[5]:        42        43        49        49        15        18         0         0        27        22        33        33        33        30        22        25 
total reads: 2677
min_bank_accesses = 0!
chip skew: 456/434 = 1.05
average mf latency per bank:
dram[0]:       2167      2115      2005      2045      6140      5812      9983      8714      2905      2802      2146      2167      2152      2139      3001      2867
dram[1]:       2196      2103      2188      2189      5200      5761      8502      8609      2843      2727      2196      2086      2126      2340      3073      3026
dram[2]:       2017      2036      2210      2140      4473      4944      6412      6253      2723      2668      2181      2199      2224      2237      3010      3083
dram[3]:       2162      2074      2131      2123      5068      5153      7812      7138      2615      2661      2161      2161      2113      2269      3077      2872
dram[4]:       2094      2056      2095      2182      4534      8445      6853     12184      3119      2672      2205      2157      2171      2239      2946      2986
dram[5]:       2210      2176      2132      2092      4941      5529      9284      8974      3156      2718      2150      2180      2149      2304      2976      2921
maximum mf latency per bank:
dram[0]:        298       335       283       279       771       697       783       698       597       607       698       529       364       369       410       381
dram[1]:        395       465       351       471       631       735       622       800       524       495       790       510       331       463       362       497
dram[2]:        336       285       305       321       533       673       550       608       438       438       567       531       332       418       314       317
dram[3]:        321       306       277       289       616       697       718       611       434       452       463       596       379       337       381       402
dram[4]:        277       292       345       317       565       889       554       874       468       784       460       675       334       333       321       372
dram[5]:        279       333       329       321       717       635       688       643       644       629       612       817       391       358       363       411

Number of Memory Banks Accessed per Memory Operation per Warp (from 0):
0	0	0	0	0	0	0	0	0	0	0	0	0	0	0	0	0	0	0	0	0	0	0	0	0	0	0	0	0	0	0	0	0	0	0	0	0	0	0	0	0	0	0	0	0	0	0	0	0	0	0	0	0	0	0	0	0	0	0	0	0	0	0	0	0	0	0	0	0	0	0	0	0	0	0	0	0	0	0	0	0	0	0	0	0	0	0	0	0	0	0	0	0	0	0	0	
Average # of Memory Banks Accessed per Memory Operation per Warp=-nan

position of mrq chosen
0	0	0	0	0	0	0	0	0	0	0	0	0	0	0	0	

average position of mrq chosen = -nan
Memory Partition 0: 
Cache L2_bank_000:
MSHR contents

Cache L2_bank_001:
MSHR contents

In Dram Latency Queue (total = 0): 
DRAM[0]: 16 bks, busW=4 BL=8 CL=12, tRRD=2 tCCD=6, tRCD=12 tRAS=28 tRP=12 tRC=40
n_cmd=3996138 n_nop=3992790 n_act=148 n_pre=132 n_req=1628 n_rd=2346 n_write=722 bw_util=0.001535
n_activity=26011 dram_eff=0.2359
bk0: 136a 3995255i bk1: 132a 3995336i bk2: 128a 3995334i bk3: 128a 3995394i bk4: 148a 3994848i bk5: 148a 3994916i bk6: 192a 3995013i bk7: 192a 3995159i bk8: 188a 3995137i bk9: 186a 3995050i bk10: 128a 3994995i bk11: 128a 3994942i bk12: 128a 3995125i bk13: 128a 3995096i bk14: 128a 3995467i bk15: 128a 3995421i 
dram_util_bins: 0 0 0 0 0 0 0 0 0 0
dram_eff_bins: 0 0 0 0 0 0 0 0 0 0
mrqq: max=14 avg=0.00244286
Memory Partition 1: 
Cache L2_bank_002:
MSHR contents

Cache L2_bank_003:
MSHR contents

In Dram Latency Queue (total = 0): 
DRAM[1]: 16 bks, busW=4 BL=8 CL=12, tRRD=2 tCCD=6, tRCD=12 tRAS=28 tRP=12 tRC=40
n_cmd=3996138 n_nop=3992828 n_act=147 n_pre=131 n_req=1609 n_rd=2350 n_write=682 bw_util=0.001517
n_activity=25813 dram_eff=0.2349
bk0: 136a 3995264i bk1: 136a 3995298i bk2: 128a 3995380i bk3: 128a 3995378i bk4: 148a 3995026i bk5: 148a 3994808i bk6: 192a 3994994i bk7: 192a 3995095i bk8: 188a 3995223i bk9: 186a 3995145i bk10: 128a 3994924i bk11: 128a 3994974i bk12: 128a 3995152i bk13: 128a 3995142i bk14: 128a 3995523i bk15: 128a 3995437i 
dram_util_bins: 0 0 0 0 0 0 0 0 0 0
dram_eff_bins: 0 0 0 0 0 0 0 0 0 0
mrqq: max=13 avg=0.00228996
Memory Partition 2: 
Cache L2_bank_004:
MSHR contents

Cache L2_bank_005:
MSHR contents

In Dram Latency Queue (total = 0): 
DRAM[2]: 16 bks, busW=4 BL=8 CL=12, tRRD=2 tCCD=6, tRCD=12 tRAS=28 tRP=12 tRC=40
n_cmd=3996138 n_nop=3992825 n_act=142 n_pre=126 n_req=1617 n_rd=2348 n_write=697 bw_util=0.001524
n_activity=25670 dram_eff=0.2372
bk0: 132a 3995297i bk1: 136a 3995279i bk2: 128a 3995350i bk3: 128a 3995393i bk4: 148a 3995052i bk5: 152a 3994870i bk6: 192a 3995146i bk7: 192a 3995035i bk8: 188a 3995116i bk9: 184a 3995109i bk10: 128a 3994956i bk11: 128a 3994955i bk12: 128a 3995142i bk13: 128a 3995168i bk14: 128a 3995573i bk15: 128a 3995521i 
dram_util_bins: 0 0 0 0 0 0 0 0 0 0
dram_eff_bins: 0 0 0 0 0 0 0 0 0 0
mrqq: max=9 avg=0.00197866
Memory Partition 3: 
Cache L2_bank_006:
MSHR contents

Cache L2_bank_007:
MSHR contents

In Dram Latency Queue (total = 0): 
DRAM[3]: 16 bks, busW=4 BL=8 CL=12, tRRD=2 tCCD=6, tRCD=12 tRAS=28 tRP=12 tRC=40
n_cmd=3996138 n_nop=3992811 n_act=139 n_pre=123 n_req=1630 n_rd=2348 n_write=717 bw_util=0.001534
n_activity=25729 dram_eff=0.2383
bk0: 132a 3995324i bk1: 136a 3995282i bk2: 128a 3995371i bk3: 128a 3995360i bk4: 148a 3995007i bk5: 152a 3994935i bk6: 192a 3995087i bk7: 192a 3995088i bk8: 188a 3995011i bk9: 184a 3995013i bk10: 128a 3994857i bk11: 128a 3994944i bk12: 128a 3995133i bk13: 128a 3995147i bk14: 128a 3995487i bk15: 128a 3995418i 
dram_util_bins: 0 0 0 0 0 0 0 0 0 0
dram_eff_bins: 0 0 0 0 0 0 0 0 0 0
mrqq: max=16 avg=0.00259901
Memory Partition 4: 
Cache L2_bank_008:
MSHR contents

Cache L2_bank_009:
MSHR contents

In Dram Latency Queue (total = 0): 
DRAM[4]: 16 bks, busW=4 BL=8 CL=12, tRRD=2 tCCD=6, tRCD=12 tRAS=28 tRP=12 tRC=40
n_cmd=3996138 n_nop=3992826 n_act=144 n_pre=128 n_req=1620 n_rd=2344 n_write=696 bw_util=0.001521
n_activity=25697 dram_eff=0.2366
bk0: 132a 3995336i bk1: 132a 3995318i bk2: 128a 3995388i bk3: 128a 3995415i bk4: 148a 3994909i bk5: 152a 3994834i bk6: 192a 3995120i bk7: 192a 3995040i bk8: 188a 3995063i bk9: 184a 3995049i bk10: 128a 3994913i bk11: 128a 3994955i bk12: 128a 3995132i bk13: 128a 3995153i bk14: 128a 3995554i bk15: 128a 3995466i 
dram_util_bins: 0 0 0 0 0 0 0 0 0 0
dram_eff_bins: 0 0 0 0 0 0 0 0 0 0
mrqq: max=12 avg=0.00223291
Memory Partition 5: 
Cache L2_bank_010:
MSHR contents

Cache L2_bank_011:
MSHR contents

In Dram Latency Queue (total = 0): 
DRAM[5]: 16 bks, busW=4 BL=8 CL=12, tRRD=2 tCCD=6, tRCD=12 tRAS=28 tRP=12 tRC=40
n_cmd=3996138 n_nop=3992838 n_act=141 n_pre=125 n_req=1613 n_rd=2344 n_write=690 bw_util=0.001518
n_activity=25752 dram_eff=0.2356
bk0: 132a 3995326i bk1: 132a 3995314i bk2: 128a 3995388i bk3: 128a 3995383i bk4: 148a 3995078i bk5: 152a 3994896i bk6: 192a 3995108i bk7: 192a 3995089i bk8: 188a 3995072i bk9: 184a 3995114i bk10: 128a 3994869i bk11: 128a 3995055i bk12: 128a 3995125i bk13: 128a 3995163i bk14: 128a 3995557i bk15: 128a 3995464i 
dram_util_bins: 0 0 0 0 0 0 0 0 0 0
dram_eff_bins: 0 0 0 0 0 0 0 0 0 0
mrqq: max=16 avg=0.00247714

========= L2 cache stats =========
L2_cache_bank[0]: Access = 15801, Miss = 588, Miss_rate = 0.037, Pending_hits = 171, Reservation_fails = 996
L2_cache_bank[1]: Access = 15599, Miss = 585, Miss_rate = 0.038, Pending_hits = 169, Reservation_fails = 1334
L2_cache_bank[2]: Access = 15712, Miss = 588, Miss_rate = 0.037, Pending_hits = 167, Reservation_fails = 1217
L2_cache_bank[3]: Access = 15582, Miss = 587, Miss_rate = 0.038, Pending_hits = 155, Reservation_fails = 1594
L2_cache_bank[4]: Access = 15213, Miss = 586, Miss_rate = 0.039, Pending_hits = 163, Reservation_fails = 937
L2_cache_bank[5]: Access = 15194, Miss = 588, Miss_rate = 0.039, Pending_hits = 146, Reservation_fails = 963
L2_cache_bank[6]: Access = 15490, Miss = 586, Miss_rate = 0.038, Pending_hits = 164, Reservation_fails = 1434
L2_cache_bank[7]: Access = 15360, Miss = 588, Miss_rate = 0.038, Pending_hits = 159, Reservation_fails = 1027
L2_cache_bank[8]: Access = 15442, Miss = 586, Miss_rate = 0.038, Pending_hits = 153, Reservation_fails = 1143
L2_cache_bank[9]: Access = 15880, Miss = 586, Miss_rate = 0.037, Pending_hits = 156, Reservation_fails = 1151
L2_cache_bank[10]: Access = 15792, Miss = 586, Miss_rate = 0.037, Pending_hits = 151, Reservation_fails = 1035
L2_cache_bank[11]: Access = 15720, Miss = 586, Miss_rate = 0.037, Pending_hits = 156, Reservation_fails = 1241
L2_total_cache_accesses = 186785
L2_total_cache_misses = 7040
L2_total_cache_miss_rate = 0.0377
L2_total_cache_pending_hits = 1910
L2_total_cache_reservation_fails = 14072
L2_total_cache_breakdown:
	L2_cache_stats_breakdown[GLOBAL_ACC_R][HIT] = 173540
	L2_cache_stats_breakdown[GLOBAL_ACC_R][HIT_RESERVED] = 1282
	L2_cache_stats_breakdown[GLOBAL_ACC_R][MISS] = 4933
	L2_cache_stats_breakdown[GLOBAL_ACC_R][RESERVATION_FAIL] = 12618
	L2_cache_stats_breakdown[CONST_ACC_R][HIT] = 63
	L2_cache_stats_breakdown[CONST_ACC_R][HIT_RESERVED] = 9
	L2_cache_stats_breakdown[CONST_ACC_R][MISS] = 3
	L2_cache_stats_breakdown[CONST_ACC_R][RESERVATION_FAIL] = 306
	L2_cache_stats_breakdown[GLOBAL_ACC_W][HIT] = 3928
	L2_cache_stats_breakdown[GLOBAL_ACC_W][HIT_RESERVED] = 573
	L2_cache_stats_breakdown[GLOBAL_ACC_W][MISS] = 2079
	L2_cache_stats_breakdown[GLOBAL_ACC_W][RESERVATION_FAIL] = 116
	L2_cache_stats_breakdown[INST_ACC_R][HIT] = 304
	L2_cache_stats_breakdown[INST_ACC_R][HIT_RESERVED] = 46
	L2_cache_stats_breakdown[INST_ACC_R][MISS] = 25
	L2_cache_stats_breakdown[INST_ACC_R][RESERVATION_FAIL] = 1032
L2_cache_data_port_util = 0.019
L2_cache_fill_port_util = 0.001

icnt_total_pkts_mem_to_simt=907455
icnt_total_pkts_simt_to_mem=199945
LD_mem_lat_dist  0 0 0 0 0 0 0 0 0 0 0 0 0 0 0 0 0 0 0 0 0 0 0 0 0 0 0
ST_mem_lat_dist  0 0 0 0 0 0 0 0 0 0 0 0 0 0 0 0 0 0 0 0 0 0 0 0 0 0 0
----------------------------Interconnect-DETAILS--------------------------------
Class 0:
Packet latency average = 9.55756
	minimum = 6
	maximum = 111
Network latency average = 9.15437
	minimum = 6
	maximum = 111
Slowest packet = 371237
Flit latency average = 7.3195
	minimum = 6
	maximum = 110
Slowest flit = 1101212
Fragmentation average = 0
	minimum = 0
	maximum = 0
Injected packet rate average = 0.00431623
	minimum = 0.00354293 (at node 2)
	maximum = 0.00595074 (at node 21)
Accepted packet rate average = 0.00431623
	minimum = 0.00354293 (at node 2)
	maximum = 0.00595074 (at node 21)
Injected flit rate average = 0.0118786
	minimum = 0.00416208 (at node 2)
	maximum = 0.0239062 (at node 26)
Accepted flit rate average= 0.0118786
	minimum = 0.00378371 (at node 22)
	maximum = 0.0178522 (at node 6)
Injected packet length average = 2.75207
Accepted packet length average = 2.75207
Total in-flight flits = 0 (0 measured)
====== Overall Traffic Statistics ======
====== Traffic class 0 ======
Packet latency average = 16.9311 (4 samples)
	minimum = 6 (4 samples)
	maximum = 156.25 (4 samples)
Network latency average = 14.2938 (4 samples)
	minimum = 6 (4 samples)
	maximum = 153.25 (4 samples)
Flit latency average = 10.3604 (4 samples)
	minimum = 6 (4 samples)
	maximum = 152 (4 samples)
Fragmentation average = 0.00213422 (4 samples)
	minimum = 0 (4 samples)
	maximum = 46.75 (4 samples)
Injected packet rate average = 0.0219488 (4 samples)
	minimum = 0.0176883 (4 samples)
	maximum = 0.0276467 (4 samples)
Accepted packet rate average = 0.0219488 (4 samples)
	minimum = 0.0176883 (4 samples)
	maximum = 0.0276467 (4 samples)
Injected flit rate average = 0.0651519 (4 samples)
	minimum = 0.0207837 (4 samples)
	maximum = 0.132329 (4 samples)
Accepted flit rate average = 0.0651519 (4 samples)
	minimum = 0.0246575 (4 samples)
	maximum = 0.108651 (4 samples)
Injected packet size average = 2.96835 (4 samples)
Accepted packet size average = 2.96835 (4 samples)
Hops average = 1 (4 samples)
----------------------------END-of-Interconnect-DETAILS-------------------------


gpgpu_simulation_time = 0 days, 2 hrs, 29 min, 19 sec (8959 sec)
gpgpu_simulation_rate = 8745 (inst/sec)
gpgpu_simulation_rate = 337 (cycle/sec)
7 2 1 0 4 1 4 9 6 9 0 6 9 0 1 5 9 7 3 4 9 6 6 5 4 0 7 4
