

        *** GPGPU-Sim Simulator Version 3.2.2  [build 0] ***


GPGPU-Sim PTX: simulation mode 0 (can change with PTX_SIM_MODE_FUNC environment variable:
               1=functional simulation only, 0=detailed performance simulator)
GPGPU-Sim: Configuration options:

-network_mode                           1 # Interconnection network mode
-inter_config_file   config_fermi_islip.icnt # Interconnection network config file
-gpgpu_ptx_use_cuobjdump                    1 # Use cuobjdump to extract ptx and sass from binaries
-gpgpu_experimental_lib_support                    0 # Try to extract code from cuda libraries [Broken because of unknown cudaGetExportTable]
-gpgpu_ptx_convert_to_ptxplus                    0 # Convert SASS (native ISA) to ptxplus and run ptxplus
-gpgpu_ptx_force_max_capability                   20 # Force maximum compute capability
-gpgpu_ptx_inst_debug_to_file                    0 # Dump executed instructions' debug information to file
-gpgpu_ptx_inst_debug_file       inst_debug.txt # Executed instructions' debug output file
-gpgpu_ptx_inst_debug_thread_uid                    1 # Thread UID for executed instructions' debug output
-gpgpu_simd_model                       1 # 1 = post-dominator
-gpgpu_shader_core_pipeline              1536:32 # shader core pipeline config, i.e., {<nthread>:<warpsize>}
-gpgpu_tex_cache:l1  4:128:24,L:R:m:N:L,F:128:4,128:2 # per-shader L1 texture cache  (READ-ONLY) config  {<nsets>:<bsize>:<assoc>,<rep>:<wr>:<alloc>:<wr_alloc>,<mshr>:<N>:<merge>,<mq>:<rf>}
-gpgpu_const_cache:l1 64:64:2,L:R:f:N:L,A:2:32,4 # per-shader L1 constant memory cache  (READ-ONLY) config  {<nsets>:<bsize>:<assoc>,<rep>:<wr>:<alloc>:<wr_alloc>,<mshr>:<N>:<merge>,<mq>} 
-gpgpu_cache:il1     4:128:4,L:R:f:N:L,A:2:32,4 # shader L1 instruction cache config  {<nsets>:<bsize>:<assoc>,<rep>:<wr>:<alloc>:<wr_alloc>,<mshr>:<N>:<merge>,<mq>} 
-gpgpu_cache:dl1     32:128:4,L:L:m:N:H,A:32:8,8 # per-shader L1 data cache config  {<nsets>:<bsize>:<assoc>,<rep>:<wr>:<alloc>:<wr_alloc>,<mshr>:<N>:<merge>,<mq> | none}
-gpgpu_cache:dl1PrefL1                 none # per-shader L1 data cache config  {<nsets>:<bsize>:<assoc>,<rep>:<wr>:<alloc>:<wr_alloc>,<mshr>:<N>:<merge>,<mq> | none}
-gpgpu_cache:dl1PreShared                 none # per-shader L1 data cache config  {<nsets>:<bsize>:<assoc>,<rep>:<wr>:<alloc>:<wr_alloc>,<mshr>:<N>:<merge>,<mq> | none}
-gmem_skip_L1D                          0 # global memory access skip L1D cache (implements -Xptxas -dlcm=cg, default=no skip)
-gpgpu_perfect_mem                      0 # enable perfect memory mode (no cache miss)
-n_regfile_gating_group                    4 # group of lanes that should be read/written together)
-gpgpu_clock_gated_reg_file                    0 # enable clock gated reg file for power calculations
-gpgpu_clock_gated_lanes                    0 # enable clock gated lanes for power calculations
-gpgpu_shader_registers                32768 # Number of registers per shader core. Limits number of concurrent CTAs. (default 8192)
-gpgpu_shader_cta                       8 # Maximum number of concurrent CTAs in shader (default 8)
-gpgpu_num_cta_barriers                   16 # Maximum number of named barriers per CTA (default 16)
-gpgpu_n_clusters                      15 # number of processing clusters
-gpgpu_n_cores_per_cluster                    1 # number of simd cores per cluster
-gpgpu_n_cluster_ejection_buffer_size                    8 # number of packets in ejection buffer
-gpgpu_n_ldst_response_buffer_size                    2 # number of response packets in ld/st unit ejection buffer
-gpgpu_shmem_size                   16384 # Size of shared memory per shader core (default 16kB)
-gpgpu_shmem_size                   49152 # Size of shared memory per shader core (default 16kB)
-gpgpu_shmem_size_PrefL1                16384 # Size of shared memory per shader core (default 16kB)
-gpgpu_shmem_size_PrefShared                16384 # Size of shared memory per shader core (default 16kB)
-gpgpu_shmem_num_banks                   32 # Number of banks in the shared memory in each shader core (default 16)
-gpgpu_shmem_limited_broadcast                    0 # Limit shared memory to do one broadcast per cycle (default on)
-gpgpu_shmem_warp_parts                    1 # Number of portions a warp is divided into for shared memory bank conflict check 
-gpgpu_warpdistro_shader                   -1 # Specify which shader core to collect the warp size distribution from
-gpgpu_warp_issue_shader                    0 # Specify which shader core to collect the warp issue distribution from
-gpgpu_local_mem_map                    1 # Mapping from local memory space address to simulated GPU physical address space (default = enabled)
-gpgpu_num_reg_banks                   16 # Number of register banks (default = 8)
-gpgpu_reg_bank_use_warp_id                    0 # Use warp ID in mapping registers to banks (default = off)
-gpgpu_operand_collector_num_units_sp                    6 # number of collector units (default = 4)
-gpgpu_operand_collector_num_units_sfu                    8 # number of collector units (default = 4)
-gpgpu_operand_collector_num_units_mem                    2 # number of collector units (default = 2)
-gpgpu_operand_collector_num_units_gen                    0 # number of collector units (default = 0)
-gpgpu_operand_collector_num_in_ports_sp                    2 # number of collector unit in ports (default = 1)
-gpgpu_operand_collector_num_in_ports_sfu                    1 # number of collector unit in ports (default = 1)
-gpgpu_operand_collector_num_in_ports_mem                    1 # number of collector unit in ports (default = 1)
-gpgpu_operand_collector_num_in_ports_gen                    0 # number of collector unit in ports (default = 0)
-gpgpu_operand_collector_num_out_ports_sp                    2 # number of collector unit in ports (default = 1)
-gpgpu_operand_collector_num_out_ports_sfu                    1 # number of collector unit in ports (default = 1)
-gpgpu_operand_collector_num_out_ports_mem                    1 # number of collector unit in ports (default = 1)
-gpgpu_operand_collector_num_out_ports_gen                    0 # number of collector unit in ports (default = 0)
-gpgpu_coalesce_arch                   13 # Coalescing arch (default = 13, anything else is off for now)
-gpgpu_num_sched_per_core                    1 # Number of warp schedulers per core
-gpgpu_max_insn_issue_per_warp                    1 # Max number of instructions that can be issued per warp in one cycle by scheduler
-gpgpu_simt_core_sim_order                    1 # Select the simulation order of cores in a cluster (0=Fix, 1=Round-Robin)
-gpgpu_pipeline_widths        2,1,1,2,1,1,2 # Pipeline widths ID_OC_SP,ID_OC_SFU,ID_OC_MEM,OC_EX_SP,OC_EX_SFU,OC_EX_MEM,EX_WB
-gpgpu_num_sp_units                     2 # Number of SP units (default=1)
-gpgpu_num_sfu_units                    1 # Number of SF units (default=1)
-gpgpu_num_mem_units                    1 # Number if ldst units (default=1) WARNING: not hooked up to anything
-gpgpu_scheduler                      gto # Scheduler configuration: < lrr | gto | two_level_active > If two_level_active:<num_active_warps>:<inner_prioritization>:<outer_prioritization>For complete list of prioritization values see shader.h enum scheduler_prioritization_typeDefault: gto
-gpgpu_dram_scheduler                    1 # 0 = fifo, 1 = FR-FCFS (defaul)
-gpgpu_dram_partition_queues              8:8:8:8 # i2$:$2d:d2$:$2i
-l2_ideal                               0 # Use a ideal L2 cache that always hit
-gpgpu_cache:dl2     64:128:8,L:B:m:W:L,A:32:4,4:0,32 # unified banked L2 data cache config  {<nsets>:<bsize>:<assoc>,<rep>:<wr>:<alloc>:<wr_alloc>,<mshr>:<N>:<merge>,<mq>}
-gpgpu_cache:dl2_texture_only                    0 # L2 cache used for texture only
-gpgpu_n_mem                            6 # number of memory modules (e.g. memory controllers) in gpu
-gpgpu_n_sub_partition_per_mchannel                    2 # number of memory subpartition in each memory module
-gpgpu_n_mem_per_ctrlr                    2 # number of memory chips per memory controller
-gpgpu_memlatency_stat                   14 # track and display latency statistics 0x2 enables MC, 0x4 enables queue logs
-gpgpu_frfcfs_dram_sched_queue_size                   16 # 0 = unlimited (default); # entries per chip
-gpgpu_dram_return_queue_size                  116 # 0 = unlimited (default); # entries per chip
-gpgpu_dram_buswidth                    4 # default = 4 bytes (8 bytes per cycle at DDR)
-gpgpu_dram_burst_length                    8 # Burst length of each DRAM request (default = 4 data bus cycle)
-dram_data_command_freq_ratio                    4 # Frequency ratio between DRAM data bus and command bus (default = 2 times, i.e. DDR)
-gpgpu_dram_timing_opt nbk=16:CCD=2:RRD=6:RCD=12:RAS=28:RP=12:RC=40: CL=12:WL=4:CDLR=5:WR=12:nbkgrp=4:CCDL=3:RTPL=2 # DRAM timing parameters = {nbk:tCCD:tRRD:tRCD:tRAS:tRP:tRC:CL:WL:tCDLR:tWR:nbkgrp:tCCDL:tRTPL}
-rop_latency                          120 # ROP queue latency (default 85)
-dram_latency                         100 # DRAM latency (default 30)
-gpgpu_mem_addr_mapping dramid@8;00000000.00000000.00000000.00000000.0000RRRR.RRRRRRRR.BBBCCCCB.CCSSSSSS # mapping memory address to dram model {dramid@<start bit>;<memory address map>}
-gpgpu_mem_addr_test                    0 # run sweep test to check address mapping for aliased address
-gpgpu_mem_address_mask                    1 # 0 = old addressing mask, 1 = new addressing mask, 2 = new add. mask + flipped bank sel and chip sel bits
-gpuwattch_xml_file  gpuwattch_gtx480.xml # GPUWattch XML file
-power_simulation_enabled                    1 # Turn on power simulator (1=On, 0=Off)
-power_per_cycle_dump                    0 # Dump detailed power output each cycle
-power_trace_enabled                    0 # produce a file for the power trace (1=On, 0=Off)
-power_trace_zlevel                     6 # Compression level of the power trace output log (0=no comp, 9=highest)
-steady_power_levels_enabled                    0 # produce a file for the steady power levels (1=On, 0=Off)
-steady_state_definition                  8:4 # allowed deviation:number of samples
-gpgpu_max_cycle                        0 # terminates gpu simulation early (0 = no limit)
-gpgpu_max_insn                         0 # terminates gpu simulation early (0 = no limit)
-gpgpu_max_cta                          0 # terminates gpu simulation early (0 = no limit)
-gpgpu_runtime_stat                   500 # display runtime statistics such as dram utilization {<freq>:<flag>}
-liveness_message_freq                    1 # Minimum number of seconds between simulation liveness messages (0 = always print)
-gpgpu_flush_l1_cache                    0 # Flush L1 cache at the end of each kernel call
-gpgpu_flush_l2_cache                    0 # Flush L2 cache at the end of each kernel call
-gpgpu_deadlock_detect                    1 # Stop the simulation at deadlock (1=on (default), 0=off)
-gpgpu_ptx_instruction_classification                    0 # if enabled will classify ptx instruction types per kernel (Max 255 kernels now)
-gpgpu_ptx_sim_mode                     0 # Select between Performance (default) or Functional simulation (1)
-gpgpu_clock_domains 700.0:700.0:700.0:924.0 # Clock Domain Frequencies in MhZ {<Core Clock>:<ICNT Clock>:<L2 Clock>:<DRAM Clock>}
-gpgpu_max_concurrent_kernel                    8 # maximum kernels that can run concurrently on GPU
-gpgpu_cflog_interval                    0 # Interval between each snapshot in control flow logger
-visualizer_enabled                     0 # Turn on visualizer output (1=On, 0=Off)
-visualizer_outputfile                 NULL # Specifies the output log file for visualizer
-visualizer_zlevel                      6 # Compression level of the visualizer output log (0=no comp, 9=highest)
-trace_enabled                          0 # Turn on traces
-trace_components                    none # comma seperated list of traces to enable. Complete list found in trace_streams.tup. Default none
-trace_sampling_core                    0 # The core which is printed using CORE_DPRINTF. Default 0
-trace_sampling_memory_partition                   -1 # The memory partition which is printed using MEMPART_DPRINTF. Default -1 (i.e. all)
-enable_ptx_file_line_stats                    1 # Turn on PTX source line statistic profiling. (1 = On)
-ptx_line_stats_filename gpgpu_inst_stats.txt # Output file for PTX source line statistics.
-save_embedded_ptx                      0 # saves ptx files embedded in binary as <n>.ptx
-keep                                   0 # keep intermediate files created by GPGPU-Sim when interfacing with external programs
-gpgpu_ptx_save_converted_ptxplus                    0 # Saved converted ptxplus to a file
-ptx_opcode_latency_int         4,13,4,5,145 # Opcode latencies for integers <ADD,MAX,MUL,MAD,DIV>Default 1,1,19,25,145
-ptx_opcode_latency_fp          4,13,4,5,39 # Opcode latencies for single precision floating points <ADD,MAX,MUL,MAD,DIV>Default 1,1,1,1,30
-ptx_opcode_latency_dp         8,19,8,8,330 # Opcode latencies for double precision floating points <ADD,MAX,MUL,MAD,DIV>Default 8,8,8,8,335
-ptx_opcode_initiation_int            1,2,2,1,8 # Opcode initiation intervals for integers <ADD,MAX,MUL,MAD,DIV>Default 1,1,4,4,32
-ptx_opcode_initiation_fp            1,2,1,1,4 # Opcode initiation intervals for single precision floating points <ADD,MAX,MUL,MAD,DIV>Default 1,1,1,1,5
-ptx_opcode_initiation_dp         8,16,8,8,130 # Opcode initiation intervals for double precision floating points <ADD,MAX,MUL,MAD,DIV>Default 8,8,8,8,130
DRAM Timing Options:
nbk                                    16 # number of banks
CCD                                     2 # column to column delay
RRD                                     6 # minimal delay between activation of rows in different banks
RCD                                    12 # row to column delay
RAS                                    28 # time needed to activate row
RP                                     12 # time needed to precharge (deactivate) row
RC                                     40 # row cycle time
CDLR                                    5 # switching from write to read (changes tWTR)
WR                                     12 # last data-in to row precharge
CL                                     12 # CAS latency
WL                                      4 # Write latency
nbkgrp                                  4 # number of bank groups
CCDL                                    3 # column to column delay between accesses to different bank groups
RTPL                                    2 # read to precharge delay between accesses to different bank groups
Total number of memory sub partition = 12
addr_dec_mask[CHIP]  = 0000000000000000 	high:64 low:0
addr_dec_mask[BK]    = 000000000000e100 	high:16 low:8
addr_dec_mask[ROW]   = 000000000fff0000 	high:28 low:16
addr_dec_mask[COL]   = 0000000000001eff 	high:13 low:0
addr_dec_mask[BURST] = 000000000000003f 	high:6 low:0
sub_partition_id_mask = 0000000000000100
GPGPU-Sim uArch: clock freqs: 700000000.000000:700000000.000000:700000000.000000:924000000.000000
GPGPU-Sim uArch: clock periods: 0.00000000142857142857:0.00000000142857142857:0.00000000142857142857:0.00000000108225108225
*** Initializing Memory Statistics ***
GPGPU-Sim uArch: interconnect node map (shaderID+MemID to icntID)
GPGPU-Sim uArch: Memory nodes ID start from index: 15
GPGPU-Sim uArch:    0   1   2   3   4
GPGPU-Sim uArch:    5   6   7   8   9
GPGPU-Sim uArch:   10  11  12  13  14
GPGPU-Sim uArch:   15  16  17  18  19
GPGPU-Sim uArch:   20  21  22  23  24
GPGPU-Sim uArch:   25  26
GPGPU-Sim uArch: interconnect node reverse map (icntID to shaderID+MemID)
GPGPU-Sim uArch: Memory nodes start from ID: 15
GPGPU-Sim uArch:    0   1   2   3   4
GPGPU-Sim uArch:    5   6   7   8   9
GPGPU-Sim uArch:   10  11  12  13  14
GPGPU-Sim uArch:   15  16  17  18  19
GPGPU-Sim uArch:   20  21  22  23  24
GPGPU-Sim uArch:   25  26
03b9286cba6ad3de9af5d785bd8bc158  /home/kishore/project_source/gpu_class_proj/gpgpusim-benchmarks-master/bin/release/NN
GPGPU-Sim uArch: performance model initialization complete.
GPGPU-Sim PTX: __cudaRegisterFatBinary, fat_cubin_handle = 1, filename=NN.cu
self exe links to: /home/kishore/project_source/gpu_class_proj/gpgpusim-benchmarks-master/bin/release/NN
Running md5sum using "md5sum /home/kishore/project_source/gpu_class_proj/gpgpusim-benchmarks-master/bin/release/NN "
Running cuobjdump using "$CUDA_INSTALL_PATH/bin/cuobjdump -ptx -elf -sass /home/kishore/project_source/gpu_class_proj/gpgpusim-benchmarks-master/bin/release/NN > _cuobjdump_complete_output_DSmax6"
Parsing file _cuobjdump_complete_output_DSmax6
######### cuobjdump parser ########
## Adding new section PTX
Adding ptx filename: _cuobjdump_1.ptx
Adding arch: sm_10
Adding identifier: NN.cu
## Adding new section ELF
Adding arch: sm_10
Adding identifier: NN.cu
## Adding new section ELF
Adding arch: sm_20
Adding identifier: NN.cu
## Adding new section PTX
Adding ptx filename: _cuobjdump_2.ptx
Adding arch: sm_20
Adding identifier: NN.cu
Done parsing!!!
GPGPU-Sim PTX: __cudaRegisterFunction _Z18executeFourthLayerPfS_S_ : hostFun 0x0x4010a0, fat_cubin_handle = 1
GPGPU-Sim PTX: allocating constant region for "kernelTemplate" from 0x100 to 0x164 (global memory space) 1
GPGPU-Sim PTX: instruction assembly for function '_Z17executeFirstLayerPfS_S_'...   done.
GPGPU-Sim PTX: finding reconvergence points for '_Z17executeFirstLayerPfS_S_'...
GPGPU-Sim PTX: Finding dominators for '_Z17executeFirstLayerPfS_S_'...
GPGPU-Sim PTX: Finding immediate dominators for '_Z17executeFirstLayerPfS_S_'...
GPGPU-Sim PTX: Finding postdominators for '_Z17executeFirstLayerPfS_S_'...
GPGPU-Sim PTX: Finding immediate postdominators for '_Z17executeFirstLayerPfS_S_'...
GPGPU-Sim PTX: pre-decoding instructions for '_Z17executeFirstLayerPfS_S_'...
GPGPU-Sim PTX: reconvergence points for _Z17executeFirstLayerPfS_S_...
GPGPU-Sim PTX:  1 (potential) branch divergence @  PC=0x100 (_1.ptx:100) @%p1 bra $Lt_0_4098;
GPGPU-Sim PTX:    immediate post dominator      @  PC=0x108 (_1.ptx:102) cvt.f64.f32 %fd1, %f1;
GPGPU-Sim PTX:  2 (potential) branch divergence @  PC=0x148 (_1.ptx:110) @!%p2 bra $Lt_0_4866;
GPGPU-Sim PTX:    immediate post dominator      @  PC=0x2a8 (_1.ptx:162) cvt.f64.f32 %fd5, %f29;
GPGPU-Sim PTX:  3 (potential) branch divergence @  PC=0x230 (_1.ptx:142) bra.uni $Lt_0_4610;
GPGPU-Sim PTX:    immediate post dominator      @  PC=0x2a8 (_1.ptx:162) cvt.f64.f32 %fd5, %f29;
GPGPU-Sim PTX: ... end of reconvergence points for _Z17executeFirstLayerPfS_S_
GPGPU-Sim PTX: ... done pre-decoding instructions for '_Z17executeFirstLayerPfS_S_'.
GPGPU-Sim PTX: allocating constant region for "kernelTemplate2" from 0x180 to 0x1e4 (global memory space) 2
GPGPU-Sim PTX: instruction assembly for function '_Z18executeSecondLayerPfS_S_'...   done.
GPGPU-Sim PTX: finding reconvergence points for '_Z18executeSecondLayerPfS_S_'...
GPGPU-Sim PTX: Finding dominators for '_Z18executeSecondLayerPfS_S_'...
GPGPU-Sim PTX: Finding immediate dominators for '_Z18executeSecondLayerPfS_S_'...
GPGPU-Sim PTX: Finding postdominators for '_Z18executeSecondLayerPfS_S_'...
GPGPU-Sim PTX: Finding immediate postdominators for '_Z18executeSecondLayerPfS_S_'...
GPGPU-Sim PTX: pre-decoding instructions for '_Z18executeSecondLayerPfS_S_'...
GPGPU-Sim PTX: reconvergence points for _Z18executeSecondLayerPfS_S_...
GPGPU-Sim PTX:  1 (potential) branch divergence @  PC=0x4a0 (_1.ptx:251) @%p1 bra $Lt_1_5634;
GPGPU-Sim PTX:    immediate post dominator      @  PC=0x4a8 (_1.ptx:253) cvt.f64.f32 %fd1, %f1;
GPGPU-Sim PTX:  2 (potential) branch divergence @  PC=0x4e8 (_1.ptx:261) @!%p2 bra $Lt_1_6402;
GPGPU-Sim PTX:    immediate post dominator      @  PC=0x648 (_1.ptx:313) cvt.f64.f32 %fd5, %f44;
GPGPU-Sim PTX:  3 (potential) branch divergence @  PC=0x5d0 (_1.ptx:293) bra.uni $Lt_1_6146;
GPGPU-Sim PTX:    immediate post dominator      @  PC=0x648 (_1.ptx:313) cvt.f64.f32 %fd5, %f44;
GPGPU-Sim PTX: ... end of reconvergence points for _Z18executeSecondLayerPfS_S_
GPGPU-Sim PTX: ... done pre-decoding instructions for '_Z18executeSecondLayerPfS_S_'.
GPGPU-Sim PTX: instruction assembly for function '_Z17executeThirdLayerPfS_S_'...   done.
GPGPU-Sim PTX: finding reconvergence points for '_Z17executeThirdLayerPfS_S_'...
GPGPU-Sim PTX: Finding dominators for '_Z17executeThirdLayerPfS_S_'...
GPGPU-Sim PTX: Finding immediate dominators for '_Z17executeThirdLayerPfS_S_'...
GPGPU-Sim PTX: Finding postdominators for '_Z17executeThirdLayerPfS_S_'...
GPGPU-Sim PTX: Finding immediate postdominators for '_Z17executeThirdLayerPfS_S_'...
GPGPU-Sim PTX: pre-decoding instructions for '_Z17executeThirdLayerPfS_S_'...
GPGPU-Sim PTX: reconvergence points for _Z17executeThirdLayerPfS_S_...
GPGPU-Sim PTX:  1 (potential) branch divergence @  PC=0x788 (_1.ptx:373) @%p1 bra $Lt_2_4098;
GPGPU-Sim PTX:    immediate post dominator      @  PC=0x790 (_1.ptx:375) cvt.f64.f32 %fd1, %f1;
GPGPU-Sim PTX:  2 (potential) branch divergence @  PC=0x7d0 (_1.ptx:383) @!%p2 bra $Lt_2_4866;
GPGPU-Sim PTX:    immediate post dominator      @  PC=0x930 (_1.ptx:435) cvt.f64.f32 %fd5, %f29;
GPGPU-Sim PTX:  3 (potential) branch divergence @  PC=0x8b8 (_1.ptx:415) bra.uni $Lt_2_4610;
GPGPU-Sim PTX:    immediate post dominator      @  PC=0x930 (_1.ptx:435) cvt.f64.f32 %fd5, %f29;
GPGPU-Sim PTX: ... end of reconvergence points for _Z17executeThirdLayerPfS_S_
GPGPU-Sim PTX: ... done pre-decoding instructions for '_Z17executeThirdLayerPfS_S_'.
GPGPU-Sim PTX: instruction assembly for function '_Z18executeFourthLayerPfS_S_'...   done.
GPGPU-Sim PTX: finding reconvergence points for '_Z18executeFourthLayerPfS_S_'...
GPGPU-Sim PTX: Finding dominators for '_Z18executeFourthLayerPfS_S_'...
GPGPU-Sim PTX: Finding immediate dominators for '_Z18executeFourthLayerPfS_S_'...
GPGPU-Sim PTX: Finding postdominators for '_Z18executeFourthLayerPfS_S_'...
GPGPU-Sim PTX: Finding immediate postdominators for '_Z18executeFourthLayerPfS_S_'...
GPGPU-Sim PTX: pre-decoding instructions for '_Z18executeFourthLayerPfS_S_'...
GPGPU-Sim PTX: reconvergence points for _Z18executeFourthLayerPfS_S_...
GPGPU-Sim PTX:  1 (potential) branch divergence @  PC=0xa50 (_1.ptx:491) @%p1 bra $Lt_3_4098;
GPGPU-Sim PTX:    immediate post dominator      @  PC=0xa58 (_1.ptx:493) cvt.f64.f32 %fd1, %f1;
GPGPU-Sim PTX:  2 (potential) branch divergence @  PC=0xa98 (_1.ptx:501) @!%p2 bra $Lt_3_4866;
GPGPU-Sim PTX:    immediate post dominator      @  PC=0xbf8 (_1.ptx:553) cvt.f64.f32 %fd5, %f29;
GPGPU-Sim PTX:  3 (potential) branch divergence @  PC=0xb80 (_1.ptx:533) bra.uni $Lt_3_4610;
GPGPU-Sim PTX:    immediate post dominator      @  PC=0xbf8 (_1.ptx:553) cvt.f64.f32 %fd5, %f29;
GPGPU-Sim PTX: ... end of reconvergence points for _Z18executeFourthLayerPfS_S_
GPGPU-Sim PTX: ... done pre-decoding instructions for '_Z18executeFourthLayerPfS_S_'.
GPGPU-Sim PTX: finished parsing EMBEDDED .ptx file _1.ptx
Adding _cuobjdump_2.ptx with cubin handle 1
GPGPU-Sim PTX: extracting embedded .ptx to temporary file "_ptx_pAHFXI"
Running: cat _ptx_pAHFXI | sed 's/.version 1.5/.version 1.4/' | sed 's/, texmode_independent//' | sed 's/\(\.extern \.const\[1\] .b8 \w\+\)\[\]/\1\[1\]/' | sed 's/const\[.\]/const\[0\]/g' > _ptx2_nKccol
GPGPU-Sim PTX: generating ptxinfo using "$CUDA_INSTALL_PATH/bin/ptxas --gpu-name=sm_20 -v _ptx2_nKccol --output-file  /dev/null 2> _ptx_pAHFXIinfo"
GPGPU-Sim PTX: Kernel '_Z18executeFourthLayerPfS_S_' : regs=12, lmem=0, smem=0, cmem=288
GPGPU-Sim PTX: Kernel '_Z17executeThirdLayerPfS_S_' : regs=12, lmem=0, smem=0, cmem=288
GPGPU-Sim PTX: Kernel '_Z18executeSecondLayerPfS_S_' : regs=22, lmem=0, smem=0, cmem=288
GPGPU-Sim PTX: Kernel '_Z17executeFirstLayerPfS_S_' : regs=17, lmem=0, smem=0, cmem=288
GPGPU-Sim PTX: removing ptxinfo using "rm -f _ptx_pAHFXI _ptx2_nKccol _ptx_pAHFXIinfo"
GPGPU-Sim PTX: loading globals with explicit initializers... 
GPGPU-Sim PTX: finished loading globals (0 bytes total).
GPGPU-Sim PTX: loading constants with explicit initializers...  done.
GPGPU-Sim PTX: __cudaRegisterFunction _Z17executeThirdLayerPfS_S_ : hostFun 0x0x401130, fat_cubin_handle = 1
GPGPU-Sim PTX: __cudaRegisterFunction _Z18executeSecondLayerPfS_S_ : hostFun 0x0x4011c0, fat_cubin_handle = 1
GPGPU-Sim PTX: __cudaRegisterFunction _Z17executeFirstLayerPfS_S_ : hostFun 0x0x401250, fat_cubin_handle = 1
GPGPU-Sim PTX: __cudaRegisterVar: hostVar = 0x610180; deviceAddress = kernelTemplate; deviceName = kernelTemplate
GPGPU-Sim PTX: __cudaRegisterVar: Registering const memory space of 100 bytes
GPGPU-Sim PTX registering constant kernelTemplate (100 bytes) to name mapping
GPGPU-Sim PTX: __cudaRegisterVar: hostVar = 0x610200; deviceAddress = kernelTemplate2; deviceName = kernelTemplate2
GPGPU-Sim PTX: __cudaRegisterVar: Registering const memory space of 100 bytes
GPGPU-Sim PTX registering constant kernelTemplate2 (100 bytes) to name mapping
magic number = 2051
number of items = 10000
number of rows = 28
number of rows = 28
NUM=28

GPGPU-Sim PTX: cudaLaunch for 0x0x401250 (mode=performance simulation) on stream 0
GPGPU-Sim PTX: pushing kernel '_Z17executeFirstLayerPfS_S_' to stream 0, gridDim= (6,28,1) blockDim = (13,13,1) 
kernel '_Z17executeFirstLayerPfS_S_' transfer to GPU hardware scheduler
GPGPU-Sim uArch: Shader 1 bind to kernel 1 '_Z17executeFirstLayerPfS_S_'
GPGPU-Sim uArch: CTA/core = 8, limited by: threads regs cta_limit
GPGPU-Sim uArch: core:  1, cta: 0 initialized @(1,0)
GPGPU-Sim uArch: Shader 2 bind to kernel 1 '_Z17executeFirstLayerPfS_S_'
GPGPU-Sim uArch: core:  2, cta: 0 initialized @(1,0)
GPGPU-Sim uArch: Shader 3 bind to kernel 1 '_Z17executeFirstLayerPfS_S_'
GPGPU-Sim uArch: core:  3, cta: 0 initialized @(1,0)
GPGPU-Sim uArch: Shader 4 bind to kernel 1 '_Z17executeFirstLayerPfS_S_'
GPGPU-Sim uArch: core:  4, cta: 0 initialized @(1,0)
GPGPU-Sim uArch: Shader 5 bind to kernel 1 '_Z17executeFirstLayerPfS_S_'
GPGPU-Sim uArch: core:  5, cta: 0 initialized @(1,0)
GPGPU-Sim uArch: Shader 6 bind to kernel 1 '_Z17executeFirstLayerPfS_S_'
GPGPU-Sim uArch: core:  6, cta: 0 initialized @(1,0)
GPGPU-Sim uArch: Shader 7 bind to kernel 1 '_Z17executeFirstLayerPfS_S_'
GPGPU-Sim uArch: core:  7, cta: 0 initialized @(1,0)
GPGPU-Sim uArch: Shader 8 bind to kernel 1 '_Z17executeFirstLayerPfS_S_'
GPGPU-Sim uArch: core:  8, cta: 0 initialized @(1,0)
GPGPU-Sim uArch: Shader 9 bind to kernel 1 '_Z17executeFirstLayerPfS_S_'
GPGPU-Sim uArch: core:  9, cta: 0 initialized @(1,0)
GPGPU-Sim uArch: Shader 10 bind to kernel 1 '_Z17executeFirstLayerPfS_S_'
GPGPU-Sim uArch: core: 10, cta: 0 initialized @(1,0)
GPGPU-Sim uArch: Shader 11 bind to kernel 1 '_Z17executeFirstLayerPfS_S_'
GPGPU-Sim uArch: core: 11, cta: 0 initialized @(1,0)
GPGPU-Sim uArch: Shader 12 bind to kernel 1 '_Z17executeFirstLayerPfS_S_'
GPGPU-Sim uArch: core: 12, cta: 0 initialized @(1,0)
GPGPU-Sim uArch: Shader 13 bind to kernel 1 '_Z17executeFirstLayerPfS_S_'
GPGPU-Sim uArch: core: 13, cta: 0 initialized @(1,0)
GPGPU-Sim uArch: Shader 14 bind to kernel 1 '_Z17executeFirstLayerPfS_S_'
GPGPU-Sim uArch: core: 14, cta: 0 initialized @(1,0)
GPGPU-Sim uArch: Shader 0 bind to kernel 1 '_Z17executeFirstLayerPfS_S_'
GPGPU-Sim uArch: core:  0, cta: 0 initialized @(1,0)
GPGPU-Sim uArch: core:  1, cta: 1 initialized @(2,0)
GPGPU-Sim uArch: core:  2, cta: 1 initialized @(2,0)
GPGPU-Sim uArch: core:  3, cta: 1 initialized @(2,0)
GPGPU-Sim uArch: core:  4, cta: 1 initialized @(2,0)
GPGPU-Sim uArch: core:  5, cta: 1 initialized @(2,0)
GPGPU-Sim uArch: core:  6, cta: 1 initialized @(2,0)
GPGPU-Sim uArch: core:  7, cta: 1 initialized @(2,0)
GPGPU-Sim uArch: core:  8, cta: 1 initialized @(2,0)
GPGPU-Sim uArch: core:  9, cta: 1 initialized @(2,0)
GPGPU-Sim uArch: core: 10, cta: 1 initialized @(2,0)
GPGPU-Sim uArch: core: 11, cta: 1 initialized @(2,0)
GPGPU-Sim uArch: core: 12, cta: 1 initialized @(2,0)
GPGPU-Sim uArch: core: 13, cta: 1 initialized @(2,0)
GPGPU-Sim uArch: core: 14, cta: 1 initialized @(2,0)
GPGPU-Sim uArch: core:  0, cta: 1 initialized @(2,0)
GPGPU-Sim uArch: core:  1, cta: 2 initialized @(3,0)
GPGPU-Sim uArch: core:  2, cta: 2 initialized @(3,0)
GPGPU-Sim uArch: core:  3, cta: 2 initialized @(3,0)
GPGPU-Sim uArch: core:  4, cta: 2 initialized @(3,0)
GPGPU-Sim uArch: core:  5, cta: 2 initialized @(3,0)
GPGPU-Sim uArch: core:  6, cta: 2 initialized @(3,0)
GPGPU-Sim uArch: core:  7, cta: 2 initialized @(3,0)
GPGPU-Sim uArch: core:  8, cta: 2 initialized @(3,0)
GPGPU-Sim uArch: core:  9, cta: 2 initialized @(3,0)
GPGPU-Sim uArch: core: 10, cta: 2 initialized @(3,0)
GPGPU-Sim uArch: core: 11, cta: 2 initialized @(3,0)
GPGPU-Sim uArch: core: 12, cta: 2 initialized @(3,0)
GPGPU-Sim uArch: core: 13, cta: 2 initialized @(3,0)
GPGPU-Sim uArch: core: 14, cta: 2 initialized @(3,0)
GPGPU-Sim uArch: core:  0, cta: 2 initialized @(3,0)
GPGPU-Sim uArch: core:  1, cta: 3 initialized @(4,0)
GPGPU-Sim uArch: core:  2, cta: 3 initialized @(4,0)
GPGPU-Sim uArch: core:  3, cta: 3 initialized @(4,0)
GPGPU-Sim uArch: core:  4, cta: 3 initialized @(4,0)
GPGPU-Sim uArch: core:  5, cta: 3 initialized @(4,0)
GPGPU-Sim uArch: core:  6, cta: 3 initialized @(4,0)
GPGPU-Sim uArch: core:  7, cta: 3 initialized @(4,0)
GPGPU-Sim uArch: core:  8, cta: 3 initialized @(4,0)
GPGPU-Sim uArch: core:  9, cta: 3 initialized @(4,0)
GPGPU-Sim uArch: core: 10, cta: 3 initialized @(4,0)
GPGPU-Sim uArch: core: 11, cta: 3 initialized @(4,0)
GPGPU-Sim uArch: core: 12, cta: 3 initialized @(4,0)
GPGPU-Sim uArch: core: 13, cta: 3 initialized @(4,0)
GPGPU-Sim uArch: core: 14, cta: 3 initialized @(4,0)
GPGPU-Sim uArch: core:  0, cta: 3 initialized @(4,0)
GPGPU-Sim uArch: core:  1, cta: 4 initialized @(5,0)
GPGPU-Sim uArch: core:  2, cta: 4 initialized @(5,0)
GPGPU-Sim uArch: core:  3, cta: 4 initialized @(5,0)
GPGPU-Sim uArch: core:  4, cta: 4 initialized @(5,0)
GPGPU-Sim uArch: core:  5, cta: 4 initialized @(5,0)
GPGPU-Sim uArch: core:  6, cta: 4 initialized @(5,0)
GPGPU-Sim uArch: core:  7, cta: 4 initialized @(5,0)
GPGPU-Sim uArch: core:  8, cta: 4 initialized @(5,0)
GPGPU-Sim uArch: core:  9, cta: 4 initialized @(5,0)
GPGPU-Sim uArch: core: 10, cta: 4 initialized @(5,0)
GPGPU-Sim uArch: core: 11, cta: 4 initialized @(5,0)
GPGPU-Sim uArch: core: 12, cta: 4 initialized @(5,0)
GPGPU-Sim uArch: core: 13, cta: 4 initialized @(5,0)
GPGPU-Sim uArch: core: 14, cta: 4 initialized @(5,0)
GPGPU-Sim uArch: core:  0, cta: 4 initialized @(5,0)
GPGPU-Sim uArch: core:  1, cta: 5 initialized @(6,0)
GPGPU-Sim uArch: core:  2, cta: 5 initialized @(6,0)
GPGPU-Sim uArch: core:  3, cta: 5 initialized @(6,0)
GPGPU-Sim uArch: core:  4, cta: 5 initialized @(6,0)
GPGPU-Sim uArch: core:  5, cta: 5 initialized @(6,0)
GPGPU-Sim uArch: core:  6, cta: 5 initialized @(6,0)
GPGPU-Sim uArch: core:  7, cta: 5 initialized @(6,0)
GPGPU-Sim uArch: core:  8, cta: 5 initialized @(6,0)
GPGPU-Sim uArch: core:  9, cta: 5 initialized @(6,0)
GPGPU-Sim uArch: core: 10, cta: 5 initialized @(6,0)
GPGPU-Sim uArch: core: 11, cta: 5 initialized @(6,0)
GPGPU-Sim uArch: core: 12, cta: 5 initialized @(6,0)
GPGPU-Sim uArch: core: 13, cta: 5 initialized @(6,0)
GPGPU-Sim uArch: core: 14, cta: 5 initialized @(6,0)
GPGPU-Sim uArch: core:  0, cta: 5 initialized @(6,0)
GPGPU-Sim uArch: core:  1, cta: 6 initialized @(7,0)
GPGPU-Sim uArch: core:  2, cta: 6 initialized @(7,0)
GPGPU-Sim uArch: core:  3, cta: 6 initialized @(7,0)
GPGPU-Sim uArch: core:  4, cta: 6 initialized @(7,0)
GPGPU-Sim uArch: core:  5, cta: 6 initialized @(7,0)
GPGPU-Sim uArch: core:  6, cta: 6 initialized @(7,0)
GPGPU-Sim uArch: core:  7, cta: 6 initialized @(7,0)
GPGPU-Sim uArch: core:  8, cta: 6 initialized @(7,0)
GPGPU-Sim uArch: core:  9, cta: 6 initialized @(7,0)
GPGPU-Sim uArch: core: 10, cta: 6 initialized @(7,0)
GPGPU-Sim uArch: core: 11, cta: 6 initialized @(7,0)
GPGPU-Sim uArch: core: 12, cta: 6 initialized @(7,0)
GPGPU-Sim uArch: core: 13, cta: 6 initialized @(7,0)
GPGPU-Sim uArch: core: 14, cta: 6 initialized @(7,0)
GPGPU-Sim uArch: core:  0, cta: 6 initialized @(7,0)
GPGPU-Sim uArch: core:  1, cta: 7 initialized @(8,0)
GPGPU-Sim uArch: core:  2, cta: 7 initialized @(8,0)
GPGPU-Sim uArch: core:  3, cta: 7 initialized @(8,0)
GPGPU-Sim uArch: core:  4, cta: 7 initialized @(8,0)
GPGPU-Sim uArch: core:  5, cta: 7 initialized @(8,0)
GPGPU-Sim uArch: core:  6, cta: 7 initialized @(8,0)
GPGPU-Sim uArch: core:  7, cta: 7 initialized @(8,0)
GPGPU-Sim uArch: core:  8, cta: 7 initialized @(8,0)
GPGPU-Sim uArch: core:  9, cta: 7 initialized @(8,0)
GPGPU-Sim uArch: core: 10, cta: 7 initialized @(8,0)
GPGPU-Sim uArch: core: 11, cta: 7 initialized @(8,0)
GPGPU-Sim uArch: core: 12, cta: 7 initialized @(8,0)
GPGPU-Sim uArch: core: 13, cta: 7 initialized @(8,0)
GPGPU-Sim uArch: core: 14, cta: 7 initialized @(8,0)
GPGPU-Sim uArch: core:  0, cta: 7 initialized @(8,0)
GPGPU-Sim uArch: cycles simulated: 500  inst.: 61134 (ipc=122.3) sim_rate=61134 (inst/sec) elapsed = 0:0:00:01 / Wed May 13 10:32:20 2015
GPGPU-Sim PTX: 100000 instructions simulated : ctaid=(2,16,0) tid=(1,0,0)
GPGPU-Sim PTX: 200000 instructions simulated : ctaid=(1,8,0) tid=(11,6,0)
GPGPU-Sim uArch: cycles simulated: 1000  inst.: 219493 (ipc=219.5) sim_rate=73164 (inst/sec) elapsed = 0:0:00:03 / Wed May 13 10:32:22 2015
GPGPU-Sim PTX: 300000 instructions simulated : ctaid=(0,12,0) tid=(6,5,0)
GPGPU-Sim uArch: cycles simulated: 1500  inst.: 393212 (ipc=262.1) sim_rate=78642 (inst/sec) elapsed = 0:0:00:05 / Wed May 13 10:32:24 2015
GPGPU-Sim PTX: 400000 instructions simulated : ctaid=(5,7,0) tid=(7,9,0)
GPGPU-Sim uArch: cycles simulated: 2000  inst.: 404333 (ipc=202.2) sim_rate=67388 (inst/sec) elapsed = 0:0:00:06 / Wed May 13 10:32:25 2015
GPGPU-Sim uArch: cycles simulated: 2500  inst.: 450498 (ipc=180.2) sim_rate=56312 (inst/sec) elapsed = 0:0:00:08 / Wed May 13 10:32:27 2015
GPGPU-Sim PTX: 500000 instructions simulated : ctaid=(0,3,0) tid=(10,12,0)
GPGPU-Sim PTX: 600000 instructions simulated : ctaid=(0,11,0) tid=(8,8,0)
GPGPU-Sim uArch: cycles simulated: 3000  inst.: 659718 (ipc=219.9) sim_rate=65971 (inst/sec) elapsed = 0:0:00:10 / Wed May 13 10:32:29 2015
GPGPU-Sim PTX: 700000 instructions simulated : ctaid=(0,9,0) tid=(12,9,0)
GPGPU-Sim PTX: 800000 instructions simulated : ctaid=(2,12,0) tid=(7,9,0)
GPGPU-Sim uArch: cycles simulated: 3500  inst.: 893737 (ipc=255.4) sim_rate=74478 (inst/sec) elapsed = 0:0:00:12 / Wed May 13 10:32:31 2015
GPGPU-Sim PTX: 900000 instructions simulated : ctaid=(3,10,0) tid=(10,8,0)
GPGPU-Sim PTX: 1000000 instructions simulated : ctaid=(0,11,0) tid=(0,4,0)
GPGPU-Sim PTX: 1100000 instructions simulated : ctaid=(0,9,0) tid=(10,11,0)
GPGPU-Sim uArch: cycles simulated: 4000  inst.: 1127023 (ipc=281.8) sim_rate=80501 (inst/sec) elapsed = 0:0:00:14 / Wed May 13 10:32:33 2015
GPGPU-Sim PTX: 1200000 instructions simulated : ctaid=(0,11,0) tid=(0,7,0)
GPGPU-Sim PTX: 1300000 instructions simulated : ctaid=(5,10,0) tid=(4,4,0)
GPGPU-Sim uArch: cycles simulated: 4500  inst.: 1362667 (ipc=302.8) sim_rate=85166 (inst/sec) elapsed = 0:0:00:16 / Wed May 13 10:32:35 2015
GPGPU-Sim PTX: 1400000 instructions simulated : ctaid=(1,11,0) tid=(12,10,0)
GPGPU-Sim PTX: 1500000 instructions simulated : ctaid=(2,3,0) tid=(2,11,0)
GPGPU-Sim PTX: 1600000 instructions simulated : ctaid=(3,10,0) tid=(6,11,0)
GPGPU-Sim uArch: cycles simulated: 5000  inst.: 1597600 (ipc=319.5) sim_rate=88755 (inst/sec) elapsed = 0:0:00:18 / Wed May 13 10:32:37 2015
GPGPU-Sim PTX: 1700000 instructions simulated : ctaid=(2,7,0) tid=(2,12,0)
GPGPU-Sim PTX: 1800000 instructions simulated : ctaid=(2,11,0) tid=(12,11,0)
GPGPU-Sim uArch: cycles simulated: 5500  inst.: 1808266 (ipc=328.8) sim_rate=90413 (inst/sec) elapsed = 0:0:00:20 / Wed May 13 10:32:39 2015
GPGPU-Sim PTX: 1900000 instructions simulated : ctaid=(0,12,0) tid=(7,6,0)
GPGPU-Sim uArch: cycles simulated: 6000  inst.: 1991245 (ipc=331.9) sim_rate=90511 (inst/sec) elapsed = 0:0:00:22 / Wed May 13 10:32:41 2015
GPGPU-Sim PTX: 2000000 instructions simulated : ctaid=(3,4,0) tid=(3,10,0)
GPGPU-Sim PTX: 2100000 instructions simulated : ctaid=(3,4,0) tid=(4,11,0)
GPGPU-Sim uArch: cycles simulated: 6500  inst.: 2189720 (ipc=336.9) sim_rate=91238 (inst/sec) elapsed = 0:0:00:24 / Wed May 13 10:32:43 2015
GPGPU-Sim PTX: 2200000 instructions simulated : ctaid=(0,12,0) tid=(3,0,0)
GPGPU-Sim PTX: 2300000 instructions simulated : ctaid=(1,7,0) tid=(10,8,0)
GPGPU-Sim uArch: cycles simulated: 7000  inst.: 2384374 (ipc=340.6) sim_rate=91706 (inst/sec) elapsed = 0:0:00:26 / Wed May 13 10:32:45 2015
GPGPU-Sim PTX: 2400000 instructions simulated : ctaid=(3,6,0) tid=(12,7,0)
GPGPU-Sim PTX: 2500000 instructions simulated : ctaid=(0,7,0) tid=(7,9,0)
GPGPU-Sim uArch: cycles simulated: 7500  inst.: 2579274 (ipc=343.9) sim_rate=95528 (inst/sec) elapsed = 0:0:00:27 / Wed May 13 10:32:46 2015
GPGPU-Sim PTX: 2600000 instructions simulated : ctaid=(3,9,0) tid=(0,7,0)
GPGPU-Sim PTX: 2700000 instructions simulated : ctaid=(3,5,0) tid=(5,9,0)
GPGPU-Sim uArch: cycles simulated: 8000  inst.: 2777241 (ipc=347.2) sim_rate=95766 (inst/sec) elapsed = 0:0:00:29 / Wed May 13 10:32:48 2015
GPGPU-Sim PTX: 2800000 instructions simulated : ctaid=(5,5,0) tid=(4,8,0)
GPGPU-Sim uArch: Shader 1 finished CTA #4 (8123,0), 7 CTAs running
GPGPU-Sim uArch: core:  1, cta: 4 initialized @(8124,0)
GPGPU-Sim PTX: 2900000 instructions simulated : ctaid=(5,7,0) tid=(9,7,0)
GPGPU-Sim uArch: cycles simulated: 8500  inst.: 2970584 (ipc=349.5) sim_rate=95825 (inst/sec) elapsed = 0:0:00:31 / Wed May 13 10:32:50 2015
GPGPU-Sim PTX: 3000000 instructions simulated : ctaid=(3,9,0) tid=(6,7,0)
GPGPU-Sim uArch: Shader 6 finished CTA #4 (8742,0), 7 CTAs running
GPGPU-Sim uArch: core:  6, cta: 4 initialized @(8743,0)
GPGPU-Sim PTX: 3100000 instructions simulated : ctaid=(1,9,0) tid=(10,10,0)
GPGPU-Sim uArch: cycles simulated: 9000  inst.: 3153709 (ipc=350.4) sim_rate=95566 (inst/sec) elapsed = 0:0:00:33 / Wed May 13 10:32:52 2015
GPGPU-Sim PTX: 3200000 instructions simulated : ctaid=(5,4,0) tid=(6,11,0)
GPGPU-Sim PTX: 3300000 instructions simulated : ctaid=(1,8,0) tid=(6,2,0)
GPGPU-Sim uArch: Shader 8 finished CTA #2 (9450,0), 7 CTAs running
GPGPU-Sim uArch: core:  8, cta: 2 initialized @(9451,0)
GPGPU-Sim uArch: cycles simulated: 9500  inst.: 3336751 (ipc=351.2) sim_rate=95335 (inst/sec) elapsed = 0:0:00:35 / Wed May 13 10:32:54 2015
GPGPU-Sim PTX: 3400000 instructions simulated : ctaid=(0,20,0) tid=(1,6,0)
GPGPU-Sim PTX: 3500000 instructions simulated : ctaid=(0,8,0) tid=(10,6,0)
GPGPU-Sim uArch: Shader 9 finished CTA #2 (9919,0), 7 CTAs running
GPGPU-Sim uArch: core:  9, cta: 2 initialized @(9920,0)
GPGPU-Sim uArch: Shader 8 finished CTA #4 (9956,0), 7 CTAs running
GPGPU-Sim uArch: core:  8, cta: 4 initialized @(9957,0)
GPGPU-Sim uArch: cycles simulated: 10000  inst.: 3529684 (ipc=353.0) sim_rate=95396 (inst/sec) elapsed = 0:0:00:37 / Wed May 13 10:32:56 2015
GPGPU-Sim PTX: 3600000 instructions simulated : ctaid=(4,10,0) tid=(8,12,0)
GPGPU-Sim PTX: 3700000 instructions simulated : ctaid=(0,8,0) tid=(2,9,0)
GPGPU-Sim uArch: Shader 10 finished CTA #4 (10428,0), 7 CTAs running
GPGPU-Sim uArch: core: 10, cta: 4 initialized @(10429,0)
GPGPU-Sim uArch: cycles simulated: 10500  inst.: 3725553 (ipc=354.8) sim_rate=95527 (inst/sec) elapsed = 0:0:00:39 / Wed May 13 10:32:58 2015
GPGPU-Sim uArch: Shader 7 finished CTA #2 (10533,0), 7 CTAs running
GPGPU-Sim uArch: core:  7, cta: 2 initialized @(10534,0)
GPGPU-Sim PTX: 3800000 instructions simulated : ctaid=(4,12,0) tid=(12,6,0)
GPGPU-Sim uArch: Shader 11 finished CTA #2 (10669,0), 7 CTAs running
GPGPU-Sim uArch: core: 11, cta: 2 initialized @(10670,0)
GPGPU-Sim PTX: 3900000 instructions simulated : ctaid=(4,12,0) tid=(3,7,0)
GPGPU-Sim uArch: cycles simulated: 11000  inst.: 3932664 (ipc=357.5) sim_rate=98316 (inst/sec) elapsed = 0:0:00:40 / Wed May 13 10:32:59 2015
GPGPU-Sim uArch: Shader 3 finished CTA #3 (11093,0), 7 CTAs running
GPGPU-Sim uArch: core:  3, cta: 3 initialized @(11094,0)
GPGPU-Sim PTX: 4000000 instructions simulated : ctaid=(0,20,0) tid=(1,7,0)
GPGPU-Sim uArch: Shader 12 finished CTA #2 (11253,0), 7 CTAs running
GPGPU-Sim uArch: core: 12, cta: 2 initialized @(11254,0)
GPGPU-Sim PTX: 4100000 instructions simulated : ctaid=(1,14,0) tid=(12,5,0)
GPGPU-Sim uArch: Shader 5 finished CTA #2 (11421,0), 7 CTAs running
GPGPU-Sim uArch: core:  5, cta: 2 initialized @(11422,0)
GPGPU-Sim uArch: cycles simulated: 11500  inst.: 4139146 (ipc=359.9) sim_rate=98551 (inst/sec) elapsed = 0:0:00:42 / Wed May 13 10:33:01 2015
GPGPU-Sim uArch: Shader 4 finished CTA #3 (11546,0), 7 CTAs running
GPGPU-Sim uArch: core:  4, cta: 3 initialized @(11547,0)
GPGPU-Sim PTX: 4200000 instructions simulated : ctaid=(2,9,0) tid=(8,3,0)
GPGPU-Sim PTX: 4300000 instructions simulated : ctaid=(4,20,0) tid=(7,10,0)
GPGPU-Sim uArch: cycles simulated: 12000  inst.: 4343262 (ipc=361.9) sim_rate=98710 (inst/sec) elapsed = 0:0:00:44 / Wed May 13 10:33:03 2015
GPGPU-Sim PTX: 4400000 instructions simulated : ctaid=(1,21,0) tid=(0,11,0)
GPGPU-Sim uArch: Shader 2 finished CTA #3 (12141,0), 7 CTAs running
GPGPU-Sim uArch: core:  2, cta: 3 initialized @(12142,0)
GPGPU-Sim PTX: 4500000 instructions simulated : ctaid=(3,13,0) tid=(4,10,0)
GPGPU-Sim uArch: cycles simulated: 12500  inst.: 4550653 (ipc=364.1) sim_rate=98927 (inst/sec) elapsed = 0:0:00:46 / Wed May 13 10:33:05 2015
GPGPU-Sim PTX: 4600000 instructions simulated : ctaid=(1,12,0) tid=(3,0,0)
GPGPU-Sim uArch: Shader 2 finished CTA #4 (12697,0), 7 CTAs running
GPGPU-Sim uArch: core:  2, cta: 4 initialized @(12698,0)
GPGPU-Sim PTX: 4700000 instructions simulated : ctaid=(3,20,0) tid=(5,6,0)
GPGPU-Sim uArch: Shader 14 finished CTA #4 (12929,0), 7 CTAs running
GPGPU-Sim uArch: core: 14, cta: 4 initialized @(12930,0)
GPGPU-Sim uArch: cycles simulated: 13000  inst.: 4753911 (ipc=365.7) sim_rate=99039 (inst/sec) elapsed = 0:0:00:48 / Wed May 13 10:33:07 2015
GPGPU-Sim PTX: 4800000 instructions simulated : ctaid=(0,13,0) tid=(9,10,0)
GPGPU-Sim uArch: Shader 13 finished CTA #3 (13182,0), 7 CTAs running
GPGPU-Sim uArch: core: 13, cta: 3 initialized @(13183,0)
GPGPU-Sim PTX: 4900000 instructions simulated : ctaid=(5,20,0) tid=(10,8,0)
GPGPU-Sim uArch: Shader 0 finished CTA #2 (13332,0), 7 CTAs running
GPGPU-Sim uArch: core:  0, cta: 2 initialized @(13333,0)
GPGPU-Sim uArch: Shader 0 finished CTA #3 (13349,0), 7 CTAs running
GPGPU-Sim uArch: core:  0, cta: 3 initialized @(13350,0)
GPGPU-Sim uArch: cycles simulated: 13500  inst.: 4958411 (ipc=367.3) sim_rate=99168 (inst/sec) elapsed = 0:0:00:50 / Wed May 13 10:33:09 2015
GPGPU-Sim uArch: Shader 7 finished CTA #4 (13508,0), 7 CTAs running
GPGPU-Sim uArch: core:  7, cta: 4 initialized @(13509,0)
GPGPU-Sim uArch: Shader 1 finished CTA #4 (13551,0), 7 CTAs running
GPGPU-Sim uArch: core:  1, cta: 4 initialized @(13552,0)
GPGPU-Sim PTX: 5000000 instructions simulated : ctaid=(3,12,0) tid=(10,6,0)
GPGPU-Sim uArch: Shader 6 finished CTA #3 (13748,0), 7 CTAs running
GPGPU-Sim uArch: core:  6, cta: 3 initialized @(13749,0)
GPGPU-Sim PTX: 5100000 instructions simulated : ctaid=(0,21,0) tid=(8,11,0)
GPGPU-Sim uArch: cycles simulated: 14000  inst.: 5166980 (ipc=369.1) sim_rate=99365 (inst/sec) elapsed = 0:0:00:52 / Wed May 13 10:33:11 2015
GPGPU-Sim PTX: 5200000 instructions simulated : ctaid=(1,14,0) tid=(11,10,0)
GPGPU-Sim uArch: Shader 3 finished CTA #4 (14262,0), 7 CTAs running
GPGPU-Sim uArch: core:  3, cta: 4 initialized @(14263,0)
GPGPU-Sim PTX: 5300000 instructions simulated : ctaid=(5,21,0) tid=(0,2,0)
GPGPU-Sim uArch: Shader 13 finished CTA #2 (14459,0), 7 CTAs running
GPGPU-Sim uArch: core: 13, cta: 2 initialized @(14460,0)
GPGPU-Sim uArch: cycles simulated: 14500  inst.: 5372894 (ipc=370.5) sim_rate=99498 (inst/sec) elapsed = 0:0:00:54 / Wed May 13 10:33:13 2015
GPGPU-Sim PTX: 5400000 instructions simulated : ctaid=(3,22,0) tid=(6,6,0)
GPGPU-Sim uArch: Shader 9 finished CTA #3 (14635,0), 7 CTAs running
GPGPU-Sim uArch: core:  9, cta: 3 initialized @(14636,0)
GPGPU-Sim PTX: 5500000 instructions simulated : ctaid=(0,2,0) tid=(12,6,0)
GPGPU-Sim uArch: cycles simulated: 15000  inst.: 5571497 (ipc=371.4) sim_rate=99491 (inst/sec) elapsed = 0:0:00:56 / Wed May 13 10:33:15 2015
GPGPU-Sim PTX: 5600000 instructions simulated : ctaid=(0,22,0) tid=(12,10,0)
GPGPU-Sim uArch: Shader 14 finished CTA #2 (15065,0), 7 CTAs running
GPGPU-Sim uArch: core: 14, cta: 2 initialized @(15066,0)
GPGPU-Sim PTX: 5700000 instructions simulated : ctaid=(1,2,0) tid=(6,1,0)
GPGPU-Sim uArch: cycles simulated: 15500  inst.: 5761825 (ipc=371.7) sim_rate=99341 (inst/sec) elapsed = 0:0:00:58 / Wed May 13 10:33:17 2015
GPGPU-Sim uArch: Shader 4 finished CTA #2 (15517,0), 7 CTAs running
GPGPU-Sim uArch: core:  4, cta: 2 initialized @(15518,0)
GPGPU-Sim PTX: 5800000 instructions simulated : ctaid=(3,12,0) tid=(12,7,0)
GPGPU-Sim uArch: Shader 1 finished CTA #3 (15548,0), 7 CTAs running
GPGPU-Sim uArch: core:  1, cta: 3 initialized @(15549,0)
GPGPU-Sim uArch: Shader 11 finished CTA #4 (15549,0), 7 CTAs running
GPGPU-Sim uArch: core: 11, cta: 4 initialized @(15550,0)
GPGPU-Sim uArch: Shader 5 finished CTA #4 (15624,0), 7 CTAs running
GPGPU-Sim uArch: core:  5, cta: 4 initialized @(15625,0)
GPGPU-Sim uArch: Shader 6 finished CTA #4 (15628,0), 7 CTAs running
GPGPU-Sim uArch: core:  6, cta: 4 initialized @(15629,0)
GPGPU-Sim PTX: 5900000 instructions simulated : ctaid=(5,24,0) tid=(4,4,0)
GPGPU-Sim uArch: Shader 10 finished CTA #4 (15857,0), 7 CTAs running
GPGPU-Sim uArch: core: 10, cta: 4 initialized @(15858,0)
GPGPU-Sim uArch: Shader 4 finished CTA #4 (15863,0), 7 CTAs running
GPGPU-Sim uArch: core:  4, cta: 4 initialized @(15864,0)
GPGPU-Sim uArch: Shader 12 finished CTA #2 (15953,0), 7 CTAs running
GPGPU-Sim uArch: core: 12, cta: 2 initialized @(15954,0)
GPGPU-Sim uArch: cycles simulated: 16000  inst.: 5967378 (ipc=373.0) sim_rate=99456 (inst/sec) elapsed = 0:0:01:00 / Wed May 13 10:33:19 2015
GPGPU-Sim PTX: 6000000 instructions simulated : ctaid=(4,0,0) tid=(10,11,0)
GPGPU-Sim PTX: 6100000 instructions simulated : ctaid=(4,22,0) tid=(5,1,0)
GPGPU-Sim PTX: 6200000 instructions simulated : ctaid=(2,22,0) tid=(1,8,0)
GPGPU-Sim uArch: Shader 2 finished CTA #2 (16498,0), 7 CTAs running
GPGPU-Sim uArch: core:  2, cta: 2 initialized @(16499,0)
GPGPU-Sim uArch: cycles simulated: 16500  inst.: 6179144 (ipc=374.5) sim_rate=99663 (inst/sec) elapsed = 0:0:01:02 / Wed May 13 10:33:21 2015
GPGPU-Sim PTX: 6300000 instructions simulated : ctaid=(4,24,0) tid=(1,7,0)
GPGPU-Sim PTX: 6400000 instructions simulated : ctaid=(0,23,0) tid=(3,8,0)
GPGPU-Sim uArch: cycles simulated: 17000  inst.: 6397724 (ipc=376.3) sim_rate=101551 (inst/sec) elapsed = 0:0:01:03 / Wed May 13 10:33:22 2015
GPGPU-Sim PTX: 6500000 instructions simulated : ctaid=(1,16,0) tid=(9,1,0)
GPGPU-Sim uArch: Shader 8 finished CTA #2 (17226,0), 7 CTAs running
GPGPU-Sim uArch: core:  8, cta: 2 initialized @(17227,0)
GPGPU-Sim PTX: 6600000 instructions simulated : ctaid=(5,22,0) tid=(1,4,0)
GPGPU-Sim uArch: cycles simulated: 17500  inst.: 6610899 (ipc=377.8) sim_rate=101706 (inst/sec) elapsed = 0:0:01:05 / Wed May 13 10:33:24 2015
GPGPU-Sim PTX: 6700000 instructions simulated : ctaid=(5,1,0) tid=(0,1,0)
GPGPU-Sim PTX: 6800000 instructions simulated : ctaid=(3,25,0) tid=(3,9,0)
GPGPU-Sim uArch: cycles simulated: 18000  inst.: 6818247 (ipc=378.8) sim_rate=101764 (inst/sec) elapsed = 0:0:01:07 / Wed May 13 10:33:26 2015
GPGPU-Sim PTX: 6900000 instructions simulated : ctaid=(4,3,0) tid=(3,12,0)
GPGPU-Sim uArch: Shader 7 finished CTA #2 (18271,0), 7 CTAs running
GPGPU-Sim uArch: core:  7, cta: 2 initialized @(18272,0)
GPGPU-Sim uArch: Shader 3 finished CTA #3 (18291,0), 7 CTAs running
GPGPU-Sim uArch: core:  3, cta: 3 initialized @(18292,0)
GPGPU-Sim uArch: Shader 8 finished CTA #4 (18370,0), 7 CTAs running
GPGPU-Sim uArch: core:  8, cta: 4 initialized @(18371,0)
GPGPU-Sim PTX: 7000000 instructions simulated : ctaid=(4,24,0) tid=(11,6,0)
GPGPU-Sim uArch: cycles simulated: 18500  inst.: 7023658 (ipc=379.7) sim_rate=101792 (inst/sec) elapsed = 0:0:01:09 / Wed May 13 10:33:28 2015
GPGPU-Sim PTX: 7100000 instructions simulated : ctaid=(1,26,0) tid=(9,9,0)
GPGPU-Sim PTX: 7200000 instructions simulated : ctaid=(2,24,0) tid=(1,2,0)
GPGPU-Sim uArch: Shader 9 finished CTA #2 (18979,0), 7 CTAs running
GPGPU-Sim uArch: core:  9, cta: 2 initialized @(18980,0)
GPGPU-Sim uArch: cycles simulated: 19000  inst.: 7227652 (ipc=380.4) sim_rate=101797 (inst/sec) elapsed = 0:0:01:11 / Wed May 13 10:33:30 2015
GPGPU-Sim PTX: 7300000 instructions simulated : ctaid=(5,23,0) tid=(4,2,0)
GPGPU-Sim uArch: Shader 1 finished CTA #2 (19281,0), 7 CTAs running
GPGPU-Sim uArch: core:  1, cta: 2 initialized @(19282,0)
GPGPU-Sim uArch: Shader 5 finished CTA #3 (19303,0), 7 CTAs running
GPGPU-Sim uArch: core:  5, cta: 3 initialized @(19304,0)
GPGPU-Sim PTX: 7400000 instructions simulated : ctaid=(3,26,0) tid=(4,11,0)
GPGPU-Sim uArch: cycles simulated: 19500  inst.: 7423849 (ipc=380.7) sim_rate=101696 (inst/sec) elapsed = 0:0:01:13 / Wed May 13 10:33:32 2015
GPGPU-Sim uArch: Shader 13 finished CTA #5 (19527,0), 7 CTAs running
GPGPU-Sim uArch: core: 13, cta: 5 initialized @(19528,0)
GPGPU-Sim uArch: Shader 11 finished CTA #3 (19576,0), 7 CTAs running
GPGPU-Sim uArch: core: 11, cta: 3 initialized @(19577,0)
GPGPU-Sim uArch: Shader 11 finished CTA #2 (19595,0), 7 CTAs running
GPGPU-Sim uArch: core: 11, cta: 2 initialized @(19596,0)
GPGPU-Sim PTX: 7500000 instructions simulated : ctaid=(4,3,0) tid=(1,8,0)
GPGPU-Sim PTX: 7600000 instructions simulated : ctaid=(0,26,0) tid=(10,5,0)
GPGPU-Sim uArch: Shader 3 finished CTA #4 (19925,0), 7 CTAs running
GPGPU-Sim uArch: core:  3, cta: 4 initialized @(19926,0)
GPGPU-Sim uArch: Shader 14 finished CTA #3 (19930,0), 7 CTAs running
GPGPU-Sim uArch: core: 14, cta: 3 initialized @(19931,0)
GPGPU-Sim uArch: cycles simulated: 20000  inst.: 7619384 (ipc=381.0) sim_rate=101591 (inst/sec) elapsed = 0:0:01:15 / Wed May 13 10:33:34 2015
GPGPU-Sim PTX: 7700000 instructions simulated : ctaid=(4,25,0) tid=(1,7,0)
GPGPU-Sim uArch: Shader 6 finished CTA #2 (20174,0), 7 CTAs running
GPGPU-Sim uArch: core:  6, cta: 2 initialized @(20175,0)
GPGPU-Sim PTX: 7800000 instructions simulated : ctaid=(5,24,0) tid=(4,4,0)
GPGPU-Sim uArch: cycles simulated: 20500  inst.: 7819495 (ipc=381.4) sim_rate=101551 (inst/sec) elapsed = 0:0:01:17 / Wed May 13 10:33:36 2015
GPGPU-Sim uArch: Shader 10 finished CTA #3 (20614,0), 7 CTAs running
GPGPU-Sim uArch: core: 10, cta: 3 initialized @(20615,0)
GPGPU-Sim PTX: 7900000 instructions simulated : ctaid=(4,25,0) tid=(0,11,0)
GPGPU-Sim uArch: Shader 12 finished CTA #3 (20639,0), 7 CTAs running
GPGPU-Sim PTX: 8000000 instructions simulated : ctaid=(2,16,0) tid=(11,1,0)
GPGPU-Sim uArch: Shader 11 finished CTA #1 (20998,0), 7 CTAs running
GPGPU-Sim uArch: cycles simulated: 21000  inst.: 8021263 (ipc=382.0) sim_rate=101534 (inst/sec) elapsed = 0:0:01:19 / Wed May 13 10:33:38 2015
GPGPU-Sim PTX: 8100000 instructions simulated : ctaid=(5,26,0) tid=(3,4,0)
GPGPU-Sim uArch: Shader 0 finished CTA #4 (21237,0), 7 CTAs running
GPGPU-Sim uArch: Shader 2 finished CTA #4 (21306,0), 7 CTAs running
GPGPU-Sim PTX: 8200000 instructions simulated : ctaid=(5,26,0) tid=(1,10,0)
GPGPU-Sim uArch: cycles simulated: 21500  inst.: 8224150 (ipc=382.5) sim_rate=101532 (inst/sec) elapsed = 0:0:01:21 / Wed May 13 10:33:40 2015
GPGPU-Sim PTX: 8300000 instructions simulated : ctaid=(5,26,0) tid=(10,7,0)
GPGPU-Sim uArch: Shader 10 finished CTA #1 (21626,0), 7 CTAs running
GPGPU-Sim uArch: Shader 0 finished CTA #2 (21732,0), 6 CTAs running
GPGPU-Sim PTX: 8400000 instructions simulated : ctaid=(3,0,0) tid=(3,10,0)
GPGPU-Sim uArch: Shader 2 finished CTA #3 (21924,0), 6 CTAs running
GPGPU-Sim uArch: cycles simulated: 22000  inst.: 8430783 (ipc=383.2) sim_rate=101575 (inst/sec) elapsed = 0:0:01:23 / Wed May 13 10:33:42 2015
GPGPU-Sim PTX: 8500000 instructions simulated : ctaid=(2,26,0) tid=(9,9,0)
GPGPU-Sim uArch: Shader 7 finished CTA #3 (22282,0), 7 CTAs running
GPGPU-Sim uArch: Shader 7 finished CTA #4 (22302,0), 6 CTAs running
GPGPU-Sim uArch: Shader 12 finished CTA #2 (22308,0), 6 CTAs running
GPGPU-Sim PTX: 8600000 instructions simulated : ctaid=(3,27,0) tid=(0,6,0)
GPGPU-Sim uArch: cycles simulated: 22500  inst.: 8627963 (ipc=383.5) sim_rate=101505 (inst/sec) elapsed = 0:0:01:25 / Wed May 13 10:33:44 2015
GPGPU-Sim uArch: Shader 12 finished CTA #4 (22545,0), 5 CTAs running
GPGPU-Sim PTX: 8700000 instructions simulated : ctaid=(0,1,0) tid=(3,2,0)
GPGPU-Sim uArch: Shader 1 finished CTA #4 (22801,0), 7 CTAs running
GPGPU-Sim PTX: 8800000 instructions simulated : ctaid=(2,17,0) tid=(2,8,0)
GPGPU-Sim uArch: Shader 5 finished CTA #4 (22904,0), 7 CTAs running
GPGPU-Sim uArch: cycles simulated: 23000  inst.: 8813804 (ipc=383.2) sim_rate=101308 (inst/sec) elapsed = 0:0:01:27 / Wed May 13 10:33:46 2015
GPGPU-Sim PTX: 8900000 instructions simulated : ctaid=(0,26,0) tid=(3,4,0)
GPGPU-Sim uArch: Shader 14 finished CTA #2 (23265,0), 7 CTAs running
GPGPU-Sim uArch: Shader 13 finished CTA #4 (23333,0), 7 CTAs running
GPGPU-Sim uArch: Shader 1 finished CTA #3 (23414,0), 6 CTAs running
GPGPU-Sim PTX: 9000000 instructions simulated : ctaid=(4,2,0) tid=(1,7,0)
GPGPU-Sim uArch: cycles simulated: 23500  inst.: 8993595 (ipc=382.7) sim_rate=101051 (inst/sec) elapsed = 0:0:01:29 / Wed May 13 10:33:48 2015
GPGPU-Sim uArch: Shader 6 finished CTA #4 (23503,0), 7 CTAs running
GPGPU-Sim uArch: Shader 13 finished CTA #1 (23505,0), 6 CTAs running
GPGPU-Sim uArch: Shader 4 finished CTA #4 (23592,0), 7 CTAs running
GPGPU-Sim PTX: 9100000 instructions simulated : ctaid=(0,3,0) tid=(12,0,0)
GPGPU-Sim uArch: Shader 5 finished CTA #2 (23743,0), 6 CTAs running
GPGPU-Sim uArch: Shader 4 finished CTA #3 (23759,0), 6 CTAs running
GPGPU-Sim uArch: Shader 13 finished CTA #2 (23811,0), 5 CTAs running
GPGPU-Sim uArch: Shader 8 finished CTA #3 (23817,0), 7 CTAs running
GPGPU-Sim PTX: 9200000 instructions simulated : ctaid=(1,27,0) tid=(3,9,0)
GPGPU-Sim uArch: cycles simulated: 24000  inst.: 9179436 (ipc=382.5) sim_rate=100872 (inst/sec) elapsed = 0:0:01:31 / Wed May 13 10:33:50 2015
GPGPU-Sim uArch: Shader 7 finished CTA #2 (24085,0), 5 CTAs running
GPGPU-Sim uArch: Shader 0 finished CTA #0 (24119,0), 5 CTAs running
GPGPU-Sim uArch: Shader 0 finished CTA #1 (24212,0), 4 CTAs running
GPGPU-Sim PTX: 9300000 instructions simulated : ctaid=(1,15,0) tid=(0,7,0)
GPGPU-Sim uArch: Shader 2 finished CTA #2 (24397,0), 5 CTAs running
GPGPU-Sim uArch: Shader 14 finished CTA #0 (24429,0), 6 CTAs running
GPGPU-Sim PTX: 9400000 instructions simulated : ctaid=(0,16,0) tid=(9,6,0)
GPGPU-Sim uArch: cycles simulated: 24500  inst.: 9372435 (ipc=382.5) sim_rate=100778 (inst/sec) elapsed = 0:0:01:33 / Wed May 13 10:33:52 2015
GPGPU-Sim uArch: Shader 13 finished CTA #5 (24598,0), 4 CTAs running
GPGPU-Sim PTX: 9500000 instructions simulated : ctaid=(5,16,0) tid=(8,11,0)
GPGPU-Sim uArch: Shader 0 finished CTA #3 (24776,0), 3 CTAs running
GPGPU-Sim uArch: Shader 12 finished CTA #1 (24827,0), 4 CTAs running
GPGPU-Sim uArch: Shader 10 finished CTA #2 (24836,0), 6 CTAs running
GPGPU-Sim uArch: cycles simulated: 25000  inst.: 9566321 (ipc=382.7) sim_rate=100698 (inst/sec) elapsed = 0:0:01:35 / Wed May 13 10:33:54 2015
GPGPU-Sim PTX: 9600000 instructions simulated : ctaid=(3,1,0) tid=(2,2,0)
GPGPU-Sim uArch: Shader 12 finished CTA #5 (25006,0), 3 CTAs running
GPGPU-Sim uArch: Shader 9 finished CTA #4 (25041,0), 7 CTAs running
GPGPU-Sim uArch: Shader 12 finished CTA #0 (25112,0), 2 CTAs running
GPGPU-Sim PTX: 9700000 instructions simulated : ctaid=(4,1,0) tid=(7,8,0)
GPGPU-Sim uArch: Shader 10 finished CTA #4 (25378,0), 5 CTAs running
GPGPU-Sim uArch: Shader 0 finished CTA #5 (25463,0), 2 CTAs running
GPGPU-Sim PTX: 9800000 instructions simulated : ctaid=(5,13,0) tid=(7,1,0)
GPGPU-Sim uArch: cycles simulated: 25500  inst.: 9767620 (ipc=383.0) sim_rate=100697 (inst/sec) elapsed = 0:0:01:37 / Wed May 13 10:33:56 2015
GPGPU-Sim uArch: Shader 9 finished CTA #2 (25529,0), 6 CTAs running
GPGPU-Sim uArch: Shader 3 finished CTA #3 (25582,0), 7 CTAs running
GPGPU-Sim PTX: 9900000 instructions simulated : ctaid=(4,15,0) tid=(12,9,0)
GPGPU-Sim uArch: Shader 9 finished CTA #3 (25934,0), 5 CTAs running
GPGPU-Sim uArch: cycles simulated: 26000  inst.: 9964591 (ipc=383.3) sim_rate=100652 (inst/sec) elapsed = 0:0:01:39 / Wed May 13 10:33:58 2015
GPGPU-Sim PTX: 10000000 instructions simulated : ctaid=(5,0,0) tid=(10,11,0)
GPGPU-Sim uArch: Shader 10 finished CTA #5 (26207,0), 4 CTAs running
GPGPU-Sim uArch: Shader 11 finished CTA #2 (26232,0), 6 CTAs running
GPGPU-Sim uArch: Shader 11 finished CTA #4 (26241,0), 5 CTAs running
GPGPU-Sim PTX: 10100000 instructions simulated : ctaid=(3,2,0) tid=(4,8,0)
GPGPU-Sim uArch: Shader 8 finished CTA #2 (26296,0), 6 CTAs running
GPGPU-Sim uArch: Shader 3 finished CTA #4 (26465,0), 6 CTAs running
GPGPU-Sim uArch: cycles simulated: 26500  inst.: 10154087 (ipc=383.2) sim_rate=100535 (inst/sec) elapsed = 0:0:01:41 / Wed May 13 10:34:00 2015
GPGPU-Sim PTX: 10200000 instructions simulated : ctaid=(3,1,0) tid=(12,5,0)
GPGPU-Sim uArch: Shader 6 finished CTA #3 (26553,0), 6 CTAs running
GPGPU-Sim uArch: Shader 7 finished CTA #1 (26616,0), 4 CTAs running
GPGPU-Sim uArch: Shader 4 finished CTA #2 (26627,0), 5 CTAs running
GPGPU-Sim PTX: 10300000 instructions simulated : ctaid=(0,27,0) tid=(8,12,0)
GPGPU-Sim uArch: Shader 9 finished CTA #1 (26918,0), 4 CTAs running
GPGPU-Sim uArch: Shader 4 finished CTA #0 (26944,0), 4 CTAs running
GPGPU-Sim uArch: cycles simulated: 27000  inst.: 10341292 (ipc=383.0) sim_rate=100400 (inst/sec) elapsed = 0:0:01:43 / Wed May 13 10:34:02 2015
GPGPU-Sim PTX: 10400000 instructions simulated : ctaid=(2,16,0) tid=(11,12,0)
GPGPU-Sim uArch: Shader 5 finished CTA #5 (27092,0), 5 CTAs running
GPGPU-Sim uArch: Shader 1 finished CTA #2 (27151,0), 5 CTAs running
GPGPU-Sim uArch: Shader 6 finished CTA #2 (27163,0), 5 CTAs running
GPGPU-Sim uArch: Shader 9 finished CTA #5 (27174,0), 3 CTAs running
GPGPU-Sim uArch: Shader 12 finished CTA #6 (27204,0), 1 CTAs running
GPGPU-Sim uArch: Shader 5 finished CTA #0 (27282,0), 4 CTAs running
GPGPU-Sim PTX: 10500000 instructions simulated : ctaid=(4,17,0) tid=(3,0,0)
GPGPU-Sim uArch: Shader 2 finished CTA #5 (27344,0), 4 CTAs running
GPGPU-Sim uArch: Shader 8 finished CTA #4 (27391,0), 5 CTAs running
GPGPU-Sim uArch: Shader 2 finished CTA #1 (27425,0), 3 CTAs running
GPGPU-Sim uArch: Shader 14 finished CTA #5 (27477,0), 5 CTAs running
GPGPU-Sim uArch: cycles simulated: 27500  inst.: 10525004 (ipc=382.7) sim_rate=100238 (inst/sec) elapsed = 0:0:01:45 / Wed May 13 10:34:04 2015
GPGPU-Sim uArch: Shader 14 finished CTA #3 (27545,0), 4 CTAs running
GPGPU-Sim uArch: Shader 14 finished CTA #4 (27548,0), 3 CTAs running
GPGPU-Sim PTX: 10600000 instructions simulated : ctaid=(1,1,0) tid=(12,12,0)
GPGPU-Sim uArch: Shader 13 finished CTA #3 (27650,0), 3 CTAs running
GPGPU-Sim uArch: Shader 0 finished CTA #6 (27669,0), 1 CTAs running
GPGPU-Sim PTX: 10700000 instructions simulated : ctaid=(4,16,0) tid=(2,8,0)
GPGPU-Sim uArch: cycles simulated: 28000  inst.: 10706595 (ipc=382.4) sim_rate=100061 (inst/sec) elapsed = 0:0:01:47 / Wed May 13 10:34:06 2015
GPGPU-Sim uArch: Shader 2 finished CTA #0 (28065,0), 2 CTAs running
GPGPU-Sim PTX: 10800000 instructions simulated : ctaid=(0,2,0) tid=(12,12,0)
GPGPU-Sim uArch: Shader 7 finished CTA #5 (28210,0), 3 CTAs running
GPGPU-Sim uArch: Shader 4 finished CTA #5 (28233,0), 3 CTAs running
GPGPU-Sim uArch: Shader 5 finished CTA #3 (28259,0), 3 CTAs running
GPGPU-Sim uArch: Shader 10 finished CTA #3 (28429,0), 3 CTAs running
GPGPU-Sim PTX: 10900000 instructions simulated : ctaid=(4,17,0) tid=(2,3,0)
GPGPU-Sim uArch: Shader 6 finished CTA #1 (28480,0), 4 CTAs running
GPGPU-Sim uArch: cycles simulated: 28500  inst.: 10882859 (ipc=381.9) sim_rate=99842 (inst/sec) elapsed = 0:0:01:49 / Wed May 13 10:34:08 2015
GPGPU-Sim uArch: Shader 11 finished CTA #3 (28550,0), 4 CTAs running
GPGPU-Sim uArch: Shader 4 finished CTA #1 (28641,0), 2 CTAs running
GPGPU-Sim uArch: Shader 0 finished CTA #7 (28678,0), 0 CTAs running
GPGPU-Sim uArch: Shader 0 empty (release kernel 1 '_Z17executeFirstLayerPfS_S_').
GPGPU-Sim PTX: 11000000 instructions simulated : ctaid=(4,19,0) tid=(3,5,0)
GPGPU-Sim uArch: Shader 12 finished CTA #7 (28732,0), 0 CTAs running
GPGPU-Sim uArch: Shader 12 empty (release kernel 1 '_Z17executeFirstLayerPfS_S_').
GPGPU-Sim uArch: Shader 13 finished CTA #6 (28871,0), 2 CTAs running
GPGPU-Sim uArch: Shader 7 finished CTA #0 (28875,0), 2 CTAs running
GPGPU-Sim uArch: cycles simulated: 29000  inst.: 11048100 (ipc=381.0) sim_rate=100437 (inst/sec) elapsed = 0:0:01:50 / Wed May 13 10:34:09 2015
GPGPU-Sim PTX: 11100000 instructions simulated : ctaid=(0,18,0) tid=(8,4,0)
GPGPU-Sim uArch: Shader 14 finished CTA #6 (29120,0), 2 CTAs running
GPGPU-Sim uArch: Shader 10 finished CTA #6 (29319,0), 2 CTAs running
GPGPU-Sim PTX: 11200000 instructions simulated : ctaid=(5,17,0) tid=(5,3,0)
GPGPU-Sim uArch: Shader 3 finished CTA #0 (29440,0), 5 CTAs running
GPGPU-Sim uArch: cycles simulated: 29500  inst.: 11197509 (ipc=379.6) sim_rate=99977 (inst/sec) elapsed = 0:0:01:52 / Wed May 13 10:34:11 2015
GPGPU-Sim uArch: Shader 8 finished CTA #1 (29677,0), 4 CTAs running
GPGPU-Sim uArch: Shader 7 finished CTA #6 (29720,0), 1 CTAs running
GPGPU-Sim PTX: 11300000 instructions simulated : ctaid=(0,19,0) tid=(11,10,0)
GPGPU-Sim uArch: Shader 9 finished CTA #0 (29779,0), 2 CTAs running
GPGPU-Sim uArch: Shader 4 finished CTA #6 (29857,0), 1 CTAs running
GPGPU-Sim uArch: Shader 1 finished CTA #1 (29871,0), 4 CTAs running
GPGPU-Sim uArch: Shader 3 finished CTA #5 (29902,0), 4 CTAs running
GPGPU-Sim uArch: Shader 5 finished CTA #6 (29990,0), 2 CTAs running
GPGPU-Sim uArch: cycles simulated: 30000  inst.: 11321196 (ipc=377.4) sim_rate=100187 (inst/sec) elapsed = 0:0:01:53 / Wed May 13 10:34:12 2015
GPGPU-Sim uArch: Shader 2 finished CTA #6 (30034,0), 1 CTAs running
GPGPU-Sim uArch: Shader 13 finished CTA #0 (30073,0), 1 CTAs running
GPGPU-Sim uArch: Shader 11 finished CTA #5 (30154,0), 3 CTAs running
GPGPU-Sim PTX: 11400000 instructions simulated : ctaid=(1,16,0) tid=(7,7,0)
GPGPU-Sim uArch: Shader 9 finished CTA #6 (30215,0), 1 CTAs running
GPGPU-Sim uArch: Shader 5 finished CTA #1 (30353,0), 1 CTAs running
GPGPU-Sim uArch: cycles simulated: 30500  inst.: 11419051 (ipc=374.4) sim_rate=100167 (inst/sec) elapsed = 0:0:01:54 / Wed May 13 10:34:13 2015
GPGPU-Sim uArch: Shader 8 finished CTA #5 (30593,0), 3 CTAs running
GPGPU-Sim uArch: Shader 14 finished CTA #1 (30730,0), 1 CTAs running
GPGPU-Sim PTX: 11500000 instructions simulated : ctaid=(3,17,0) tid=(8,4,0)
GPGPU-Sim uArch: Shader 6 finished CTA #5 (30791,0), 3 CTAs running
GPGPU-Sim uArch: Shader 3 finished CTA #1 (30914,0), 3 CTAs running
GPGPU-Sim uArch: Shader 6 finished CTA #0 (30995,0), 2 CTAs running
GPGPU-Sim uArch: cycles simulated: 31000  inst.: 11503939 (ipc=371.1) sim_rate=100034 (inst/sec) elapsed = 0:0:01:55 / Wed May 13 10:34:14 2015
GPGPU-Sim uArch: Shader 10 finished CTA #7 (31167,0), 1 CTAs running
GPGPU-Sim uArch: Shader 14 finished CTA #7 (31213,0), 0 CTAs running
GPGPU-Sim uArch: Shader 14 empty (release kernel 1 '_Z17executeFirstLayerPfS_S_').
GPGPU-Sim uArch: Shader 13 finished CTA #7 (31373,0), 0 CTAs running
GPGPU-Sim uArch: Shader 13 empty (release kernel 1 '_Z17executeFirstLayerPfS_S_').
GPGPU-Sim uArch: Shader 10 finished CTA #0 (31390,0), 0 CTAs running
GPGPU-Sim uArch: Shader 10 empty (release kernel 1 '_Z17executeFirstLayerPfS_S_').
GPGPU-Sim PTX: 11600000 instructions simulated : ctaid=(5,17,0) tid=(5,1,0)
GPGPU-Sim uArch: Shader 2 finished CTA #7 (31494,0), 0 CTAs running
GPGPU-Sim uArch: Shader 2 empty (release kernel 1 '_Z17executeFirstLayerPfS_S_').
GPGPU-Sim uArch: Shader 8 finished CTA #0 (31495,0), 2 CTAs running
GPGPU-Sim uArch: cycles simulated: 31500  inst.: 11570422 (ipc=367.3) sim_rate=99745 (inst/sec) elapsed = 0:0:01:56 / Wed May 13 10:34:15 2015
GPGPU-Sim uArch: Shader 1 finished CTA #0 (31652,0), 3 CTAs running
GPGPU-Sim uArch: Shader 5 finished CTA #7 (31699,0), 0 CTAs running
GPGPU-Sim uArch: Shader 5 empty (release kernel 1 '_Z17executeFirstLayerPfS_S_').
GPGPU-Sim uArch: Shader 7 finished CTA #7 (31707,0), 0 CTAs running
GPGPU-Sim uArch: Shader 7 empty (release kernel 1 '_Z17executeFirstLayerPfS_S_').
GPGPU-Sim uArch: Shader 4 finished CTA #7 (31713,0), 0 CTAs running
GPGPU-Sim uArch: Shader 4 empty (release kernel 1 '_Z17executeFirstLayerPfS_S_').
GPGPU-Sim uArch: Shader 1 finished CTA #5 (31793,0), 2 CTAs running
GPGPU-Sim uArch: Shader 11 finished CTA #6 (31962,0), 2 CTAs running
GPGPU-Sim uArch: cycles simulated: 32000  inst.: 11617829 (ipc=363.1) sim_rate=99297 (inst/sec) elapsed = 0:0:01:57 / Wed May 13 10:34:16 2015
GPGPU-Sim uArch: Shader 9 finished CTA #7 (32013,0), 0 CTAs running
GPGPU-Sim uArch: Shader 9 empty (release kernel 1 '_Z17executeFirstLayerPfS_S_').
GPGPU-Sim uArch: Shader 3 finished CTA #2 (32050,0), 2 CTAs running
GPGPU-Sim uArch: Shader 8 finished CTA #6 (32258,0), 1 CTAs running
GPGPU-Sim uArch: Shader 3 finished CTA #6 (32301,0), 1 CTAs running
GPGPU-Sim uArch: cycles simulated: 32500  inst.: 11651037 (ipc=358.5) sim_rate=98737 (inst/sec) elapsed = 0:0:01:58 / Wed May 13 10:34:17 2015
GPGPU-Sim uArch: Shader 6 finished CTA #6 (32612,0), 1 CTAs running
GPGPU-Sim PTX: 11700000 instructions simulated : ctaid=(5,17,0) tid=(9,11,0)
GPGPU-Sim uArch: Shader 11 finished CTA #0 (32910,0), 1 CTAs running
GPGPU-Sim uArch: Shader 1 finished CTA #6 (33306,0), 1 CTAs running
GPGPU-Sim uArch: Shader 11 finished CTA #7 (33962,0), 0 CTAs running
GPGPU-Sim uArch: Shader 11 empty (release kernel 1 '_Z17executeFirstLayerPfS_S_').
GPGPU-Sim uArch: cycles simulated: 34000  inst.: 11693312 (ipc=343.9) sim_rate=98263 (inst/sec) elapsed = 0:0:01:59 / Wed May 13 10:34:18 2015
GPGPU-Sim uArch: Shader 3 finished CTA #7 (34156,0), 0 CTAs running
GPGPU-Sim uArch: Shader 3 empty (release kernel 1 '_Z17executeFirstLayerPfS_S_').
GPGPU-Sim uArch: Shader 6 finished CTA #7 (34161,0), 0 CTAs running
GPGPU-Sim uArch: Shader 6 empty (release kernel 1 '_Z17executeFirstLayerPfS_S_').
GPGPU-Sim uArch: Shader 1 finished CTA #7 (34315,0), 0 CTAs running
GPGPU-Sim uArch: Shader 1 empty (release kernel 1 '_Z17executeFirstLayerPfS_S_').
GPGPU-Sim uArch: Shader 8 finished CTA #7 (34496,0), 0 CTAs running
GPGPU-Sim uArch: Shader 8 empty (release kernel 1 '_Z17executeFirstLayerPfS_S_').
GPGPU-Sim uArch: GPU detected kernel '_Z17executeFirstLayerPfS_S_' finished on shader 8.
kernel_name = _Z17executeFirstLayerPfS_S_ 
kernel_launch_uid = 1 
gpu_sim_cycle = 34497
gpu_sim_insn = 11694074
gpu_ipc =     338.9881
gpu_tot_sim_cycle = 34497
gpu_tot_sim_insn = 11694074
gpu_tot_ipc =     338.9881
gpu_tot_issued_cta = 0
gpu_stall_dramfull = 8234
gpu_stall_icnt2sh    = 12872
gpu_total_sim_rate=98269

========= Core cache stats =========
L1I_cache:
	L1I_total_cache_accesses = 245002
	L1I_total_cache_misses = 1122
	L1I_total_cache_miss_rate = 0.0046
	L1I_total_cache_pending_hits = 0
	L1I_total_cache_reservation_fails = 4140
L1D_cache:
	L1D_cache_core[0]: Access = 8495, Miss = 410, Miss_rate = 0.048, Pending_hits = 72, Reservation_fails = 1163
	L1D_cache_core[1]: Access = 10240, Miss = 542, Miss_rate = 0.053, Pending_hits = 60, Reservation_fails = 1026
	L1D_cache_core[2]: Access = 9352, Miss = 473, Miss_rate = 0.051, Pending_hits = 63, Reservation_fails = 1017
	L1D_cache_core[3]: Access = 10228, Miss = 528, Miss_rate = 0.052, Pending_hits = 70, Reservation_fails = 1003
	L1D_cache_core[4]: Access = 9415, Miss = 490, Miss_rate = 0.052, Pending_hits = 70, Reservation_fails = 1211
	L1D_cache_core[5]: Access = 9384, Miss = 478, Miss_rate = 0.051, Pending_hits = 61, Reservation_fails = 1116
	L1D_cache_core[6]: Access = 10271, Miss = 528, Miss_rate = 0.051, Pending_hits = 70, Reservation_fails = 1078
	L1D_cache_core[7]: Access = 9374, Miss = 476, Miss_rate = 0.051, Pending_hits = 60, Reservation_fails = 1052
	L1D_cache_core[8]: Access = 10223, Miss = 520, Miss_rate = 0.051, Pending_hits = 84, Reservation_fails = 1312
	L1D_cache_core[9]: Access = 9358, Miss = 552, Miss_rate = 0.059, Pending_hits = 100, Reservation_fails = 1840
	L1D_cache_core[10]: Access = 9369, Miss = 496, Miss_rate = 0.053, Pending_hits = 65, Reservation_fails = 1116
	L1D_cache_core[11]: Access = 10249, Miss = 535, Miss_rate = 0.052, Pending_hits = 108, Reservation_fails = 1216
	L1D_cache_core[12]: Access = 8510, Miss = 432, Miss_rate = 0.051, Pending_hits = 49, Reservation_fails = 1152
	L1D_cache_core[13]: Access = 9344, Miss = 522, Miss_rate = 0.056, Pending_hits = 61, Reservation_fails = 1105
	L1D_cache_core[14]: Access = 9390, Miss = 527, Miss_rate = 0.056, Pending_hits = 78, Reservation_fails = 1145
	L1D_total_cache_accesses = 143202
	L1D_total_cache_misses = 7509
	L1D_total_cache_miss_rate = 0.0524
	L1D_total_cache_pending_hits = 1071
	L1D_total_cache_reservation_fails = 17552
	L1D_cache_data_port_util = 0.280
	L1D_cache_fill_port_util = 0.012
L1C_cache:
	L1C_total_cache_accesses = 28224
	L1C_total_cache_misses = 992
	L1C_total_cache_miss_rate = 0.0351
	L1C_total_cache_pending_hits = 0
	L1C_total_cache_reservation_fails = 2958
L1T_cache:
	L1T_total_cache_accesses = 0
	L1T_total_cache_misses = 0
	L1T_total_cache_pending_hits = 0
	L1T_total_cache_reservation_fails = 0

Total_core_cache_stats:
	Total_core_cache_stats_breakdown[GLOBAL_ACC_R][HIT] = 134622
	Total_core_cache_stats_breakdown[GLOBAL_ACC_R][HIT_RESERVED] = 1071
	Total_core_cache_stats_breakdown[GLOBAL_ACC_R][MISS] = 5649
	Total_core_cache_stats_breakdown[GLOBAL_ACC_R][RESERVATION_FAIL] = 17552
	Total_core_cache_stats_breakdown[CONST_ACC_R][HIT] = 27232
	Total_core_cache_stats_breakdown[CONST_ACC_R][MISS] = 992
	Total_core_cache_stats_breakdown[CONST_ACC_R][RESERVATION_FAIL] = 2958
	Total_core_cache_stats_breakdown[GLOBAL_ACC_W][MISS] = 1860
	Total_core_cache_stats_breakdown[INST_ACC_R][HIT] = 243880
	Total_core_cache_stats_breakdown[INST_ACC_R][MISS] = 1122
	Total_core_cache_stats_breakdown[INST_ACC_R][RESERVATION_FAIL] = 4140
Shader 0 warp_id issue ditsribution:
warp_id:
0, 1, 2, 3, 4, 5, 6, 7, 8, 9, 10, 11, 12, 13, 14, 15, 16, 17, 18, 19, 20, 21, 22, 23, 24, 25, 26, 27, 28, 29, 30, 31, 32, 33, 34, 35, 36, 37, 38, 39, 40, 41, 42, 43, 44, 45, 46, 47, 
distro:
437, 437, 437, 437, 437, 408, 437, 437, 437, 437, 437, 408, 874, 874, 874, 874, 874, 860, 845, 874, 874, 874, 874, 845, 437, 437, 437, 437, 437, 437, 437, 437, 437, 437, 437, 408, 437, 437, 437, 437, 437, 437, 437, 437, 437, 437, 437, 408, 
gpgpu_n_tot_thrd_icount = 13976224
gpgpu_n_tot_w_icount = 436757
gpgpu_n_stall_shd_mem = 111296
gpgpu_n_mem_read_local = 0
gpgpu_n_mem_write_local = 0
gpgpu_n_mem_read_global = 5649
gpgpu_n_mem_write_global = 1860
gpgpu_n_mem_texture = 0
gpgpu_n_mem_const = 45
gpgpu_n_load_insn  = 1447992
gpgpu_n_store_insn = 28392
gpgpu_n_shmem_insn = 0
gpgpu_n_tex_insn = 0
gpgpu_n_const_mem_insn = 709800
gpgpu_n_param_mem_insn = 85176
gpgpu_n_shmem_bkconflict = 0
gpgpu_n_cache_bkconflict = 0
gpgpu_n_intrawarp_mshr_merge = 0
gpgpu_n_cmem_portconflict = 2958
gpgpu_stall_shd_mem[c_mem][bk_conf] = 2958
gpgpu_stall_shd_mem[c_mem][mshr_rc] = 0
gpgpu_stall_shd_mem[c_mem][icnt_rc] = 0
gpgpu_stall_shd_mem[c_mem][data_port_stall] = 0
gpgpu_stall_shd_mem[t_mem][mshr_rc] = 0
gpgpu_stall_shd_mem[t_mem][icnt_rc] = 0
gpgpu_stall_shd_mem[t_mem][data_port_stall] = 0
gpgpu_stall_shd_mem[s_mem][bk_conf] = 0
gpgpu_stall_shd_mem[gl_mem][bk_conf] = 0
gpgpu_stall_shd_mem[gl_mem][coal_stall] = 108338
gpgpu_stall_shd_mem[gl_mem][data_port_stall] = 0
gpgpu_stall_shd_mem[g_mem_ld][mshr_rc] = 0
gpgpu_stall_shd_mem[g_mem_ld][icnt_rc] = 0
gpgpu_stall_shd_mem[g_mem_ld][wb_icnt_rc] = 0
gpgpu_stall_shd_mem[g_mem_ld][wb_rsrv_fail] = 0
gpgpu_stall_shd_mem[g_mem_st][mshr_rc] = 0
gpgpu_stall_shd_mem[g_mem_st][icnt_rc] = 0
gpgpu_stall_shd_mem[g_mem_st][wb_icnt_rc] = 0
gpgpu_stall_shd_mem[g_mem_st][wb_rsrv_fail] = 0
gpgpu_stall_shd_mem[l_mem_ld][mshr_rc] = 0
gpgpu_stall_shd_mem[l_mem_ld][icnt_rc] = 0
gpgpu_stall_shd_mem[l_mem_ld][wb_icnt_rc] = 0
gpgpu_stall_shd_mem[l_mem_ld][wb_rsrv_fail] = 0
gpgpu_stall_shd_mem[l_mem_st][mshr_rc] = 0
gpgpu_stall_shd_mem[l_mem_st][icnt_rc] = 0
gpgpu_stall_shd_mem[l_mem_ld][wb_icnt_rc] = 0
gpgpu_stall_shd_mem[l_mem_ld][wb_rsrv_fail] = 0
gpu_reg_bank_conflict_stalls = 0
Warp Occupancy Distribution:
Stall:17824	W0_Idle:7432	W0_Scoreboard:19104	W1:1617	W2:1706	W3:1602	W4:1573	W5:1910	W6:2148	W7:2029	W8:1839	W9:69677	W10:1230	W11:880	W12:982	W13:1064	W14:1298	W15:978	W16:903	W17:828	W18:938	W19:914	W20:652	W21:625	W22:705	W23:1064	W24:1036	W25:1062	W26:1332	W27:1100	W28:1093	W29:981	W30:664	W31:754	W32:331573
traffic_breakdown_coretomem[CONST_ACC_R] = 360 {8:45,}
traffic_breakdown_coretomem[GLOBAL_ACC_R] = 45192 {8:5649,}
traffic_breakdown_coretomem[GLOBAL_ACC_W] = 172800 {40:499,72:504,136:857,}
traffic_breakdown_coretomem[INST_ACC_R] = 840 {8:105,}
traffic_breakdown_memtocore[CONST_ACC_R] = 3240 {72:45,}
traffic_breakdown_memtocore[GLOBAL_ACC_R] = 768264 {136:5649,}
traffic_breakdown_memtocore[GLOBAL_ACC_W] = 14880 {8:1860,}
traffic_breakdown_memtocore[INST_ACC_R] = 14280 {136:105,}
maxmrqlatency = 189 
maxdqlatency = 0 
maxmflatency = 714 
averagemflatency = 233 
max_icnt2mem_latency = 472 
max_icnt2sh_latency = 34496 
mrq_lat_table:1474 	439 	112 	160 	147 	51 	169 	65 	0 	0 	0 	0 	0 	0 	0 	0 	0 	0 	0 	0 	0 	0 	0 	0 	0 	0 	0 	0 	0 	0 	0 	0 	
dq_lat_table:0 	0 	0 	0 	0 	0 	0 	0 	0 	0 	0 	0 	0 	0 	0 	0 	0 	0 	0 	0 	0 	0 	0 	0 	0 	0 	0 	0 	0 	0 	0 	0 	
mf_lat_table:0 	0 	0 	0 	0 	0 	0 	5094 	2181 	279 	0 	0 	0 	0 	0 	0 	0 	0 	0 	0 	0 	0 	0 	0 	0 	0 	0 	0 	0 	0 	0 	0 	
icnt2mem_lat_table:0 	0 	0 	5801 	1018 	367 	211 	204 	58 	0 	0 	0 	0 	0 	0 	0 	0 	0 	0 	0 	0 	0 	0 	0 	
icnt2sh_lat_table:0 	0 	0 	2026 	2535 	983 	148 	2 	0 	0 	0 	0 	272 	519 	1040 	29 	0 	0 	0 	0 	0 	0 	0 	0 	
mf_lat_pw_table:0 	0 	0 	0 	0 	0 	0 	61 	6 	0 	0 	0 	0 	0 	0 	0 	0 	0 	0 	0 	0 	0 	0 	0 	0 	0 	0 	0 	0 	0 	0 	0 	
maximum concurrent accesses to same row:
dram[0]:         1         0         0         0         0         0         0         0         0         0         0         0         0         0         0         0 
dram[1]:         1         0         0         0         0         0         0         0         0         0         0         0         0         0         0         0 
dram[2]:         0         0         0         0         0         0         0         0         0         0         0         0         0         0         0         0 
dram[3]:         0         0         0         0         0         0         0         0         0         0         0         0         0         0         0         0 
dram[4]:         0         0         0         0         0         0         0         0         0         0         0         0         0         0         0         0 
dram[5]:         0         0         0         0         0         0         0         0         0         0         0         0         0         0         0         0 
maximum service time to same row:
dram[0]:       325         0         0         0      5725      1800      1526      1538      6638       841      6452      6468     11468     12646         0         0 
dram[1]:      1937         0         0         0      9535      1735      1522      1554      6819      8604      6462      6438     11465     13310         0         0 
dram[2]:      4966         0         0         0      9535      1625      1538      1551      6810      6635      6450      6466     12154     13297         0         0 
dram[3]:      6141         0         0         0      9599      1619      1535      1843      6578      7229      6460      6471     11937     13294         0         0 
dram[4]:         0         0         0         0      2163      1616      1538      1809       846      6506      6482      6450     11931     13577         0         0 
dram[5]:         0         0         0         0      2079      1685      1541      1531       854      6503      6466      6457     12652     11785         0         0 
average row accesses per activate:
dram[0]:  1.000000      -nan      -nan      -nan 10.000000 10.000000 32.000000 32.000000 44.000000 43.000000 69.000000 69.000000 61.000000 61.000000      -nan      -nan 
dram[1]:  3.000000      -nan      -nan      -nan 10.000000 10.000000 32.000000 32.000000 45.000000 46.000000 70.000000 67.000000 62.000000 57.000000      -nan      -nan 
dram[2]:  2.000000      -nan      -nan      -nan 10.000000 12.000000 32.000000 32.000000 45.000000 46.000000 68.000000 68.000000 63.000000 57.000000      -nan      -nan 
dram[3]:  1.000000      -nan      -nan      -nan 10.000000 12.000000 32.000000 32.000000 45.000000 47.000000 68.000000 68.000000 62.000000 58.000000      -nan      -nan 
dram[4]:      -nan      -nan      -nan      -nan 10.000000 12.000000 32.000000 32.000000 46.000000 46.000000 71.000000 69.000000 62.000000 60.000000      -nan      -nan 
dram[5]:      -nan      -nan      -nan      -nan 10.000000 12.000000 32.000000 32.000000 45.000000 48.000000 71.000000 69.000000 63.000000 57.000000      -nan      -nan 
average row locality = 2617/66 = 39.651516
number of total memory accesses made:
dram[0]:         0         0         0         0         0         0         0         0         0         0         0         0         0         0         0         0 
dram[1]:         0         0         0         0         0         0         0         0         0         0         0         0         0         0         0         0 
dram[2]:         0         0         0         0         0         0         0         0         0         0         0         0         0         0         0         0 
dram[3]:         0         0         0         0         0         0         0         0         0         0         0         0         0         0         0         0 
dram[4]:         0         0         0         0         0         0         0         0         0         0         0         0         0         0         0         0 
dram[5]:         0         0         0         0         0         0         0         0         0         0         0         0         0         0         0         0 
total accesses: 0
min_bank_accesses = 0!
min_chip_accesses = 0!
number of total read accesses:
dram[0]:         3         0         0         0        10        10        32        32        32        31        32        32        30        30         0         0 
dram[1]:         3         0         0         0        10        10        32        32        32        32        32        32        30        28         0         0 
dram[2]:         2         0         0         0        10        12        32        32        32        32        32        32        30        28         0         0 
dram[3]:         1         0         0         0        10        12        32        32        32        32        32        32        30        28         0         0 
dram[4]:         0         0         0         0        10        12        32        32        32        32        32        32        30        28         0         0 
dram[5]:         0         0         0         0        10        12        32        32        32        32        32        32        30        28         0         0 
total reads: 1638
min_bank_accesses = 0!
chip skew: 274/272 = 1.01
number of total write accesses:
dram[0]:         0         0         0         0         0         0         0         0        12        12        37        37        31        31         0         0 
dram[1]:         0         0         0         0         0         0         0         0        13        14        38        35        32        29         0         0 
[...]
traffic_breakdown_coretomem[CONST_ACC_R] = 600 {8:75,}
traffic_breakdown_coretomem[GLOBAL_ACC_R] = 1358384 {8:169798,}
traffic_breakdown_coretomem[GLOBAL_ACC_W] = 517200 {40:4279,72:1204,136:1907,}
traffic_breakdown_coretomem[INST_ACC_R] = 3000 {8:375,}
traffic_breakdown_memtocore[CONST_ACC_R] = 5400 {72:75,}
traffic_breakdown_memtocore[GLOBAL_ACC_R] = 23092528 {136:169798,}
traffic_breakdown_memtocore[GLOBAL_ACC_W] = 59120 {8:7390,}
traffic_breakdown_memtocore[INST_ACC_R] = 51000 {136:375,}
maxmrqlatency = 189 
maxdqlatency = 0 
maxmflatency = 714 
averagemflatency = 152 
max_icnt2mem_latency = 472 
max_icnt2sh_latency = 2839328 
mrq_lat_table:7288 	865 	200 	428 	459 	99 	181 	65 	0 	0 	0 	0 	0 	0 	0 	0 	0 	0 	0 	0 	0 	0 	0 	0 	0 	0 	0 	0 	0 	0 	0 	0 	
dq_lat_table:0 	0 	0 	0 	0 	0 	0 	0 	0 	0 	0 	0 	0 	0 	0 	0 	0 	0 	0 	0 	0 	0 	0 	0 	0 	0 	0 	0 	0 	0 	0 	0 	
mf_lat_table:0 	0 	0 	0 	0 	0 	0 	169659 	7325 	279 	0 	0 	0 	0 	0 	0 	0 	0 	0 	0 	0 	0 	0 	0 	0 	0 	0 	0 	0 	0 	0 	0 	
icnt2mem_lat_table:0 	0 	0 	175035 	1678 	435 	228 	204 	58 	0 	0 	0 	0 	0 	0 	0 	0 	0 	0 	0 	0 	0 	0 	0 	
icnt2sh_lat_table:0 	0 	0 	155768 	12036 	1912 	155 	2 	0 	0 	0 	0 	272 	519 	1040 	630 	1636 	300 	251 	566 	1115 	1061 	0 	0 	
mf_lat_pw_table:0 	0 	0 	0 	0 	0 	0 	5641 	11 	0 	0 	0 	0 	0 	0 	0 	0 	0 	0 	0 	0 	0 	0 	0 	0 	0 	0 	0 	0 	0 	0 	0 	
maximum concurrent accesses to same row:
dram[0]:        67        70        66        69        29        26        32        32        44        43        69        69        63        63        49        46 
dram[1]:        69        68        68        68        31        27        32        32        45        46        70        67        64        61        47        46 
dram[2]:        71        67        70        68        30        26        32        32        45        46        68        68        65        61        47        47 
dram[3]:        69        71        68        65        31        28        32        32        45        47        68        68        64        62        49        50 
dram[4]:        71        68        72        70        30        29        32        32        46        46        71        69        64        64        47        50 
dram[5]:        70        68        67        70        27        27        32        32        45        48        71        69        65        61        49        52 
maximum service time to same row:
dram[0]:     19985     12588     55968     56322     86171     88879     14500     19256    704978    841406      6452      6468     11468     12646       281       282 
dram[1]:     20048    310671     56150     57416     82349     89808     15691     18947    689957    875273      6462      6438     11465    390450       282       285 
dram[2]:     15356    282193     56391     57974     82531     90029     11654     18690    692363    926062      6450      6466     12154    395912      1409       390 
dram[3]:     14178    281250     56921     56181     82445     90259     15479     21369    696417    702424      6460      6471     11937    402944       282       290 
dram[4]:     19812     22135     57138     56347     90050     90183     17800     43759    714988    691152      6482      6450     11931     13577       279       282 
dram[5]:     12884     24331     57391     56682     89478     90108     19492     46371    787468    690674      6466      6457     12652     11785      1178       288 
average row accesses per activate:
dram[0]: 17.166666 34.666668 49.000000 50.500000  3.869565  3.520000  2.526316  2.909091  2.560000  3.022727 50.500000 50.500000 32.000000 47.500000 40.500000 39.000000 
dram[1]: 26.250000 10.600000 50.000000 50.000000  3.640000  4.631579  2.742857  2.909091  2.551020  2.955555 51.000000 49.500000 48.000000 31.666666 39.500000 39.000000 
dram[2]: 35.000000 17.500000 51.000000 50.000000  4.238095  4.285714  2.666667  3.096774  2.804348  2.955555 50.000000 50.000000 48.500000 31.666666 39.500000 39.500000 
dram[3]: 34.333332 13.625000 50.000000 48.500000  4.333333  4.000000  2.594594  3.096774  3.238095  2.782609 50.000000 50.000000 48.000000 31.666666 40.500000 41.000000 
dram[4]: 35.000000 34.000000 52.000000 51.000000  3.640000  4.380952  3.096774  3.096774  3.090909  2.600000 51.500000 50.500000 48.000000 32.666668 39.500000 41.000000 
dram[5]: 34.666668 34.000000 49.500000 51.000000  3.782609  4.736842  2.823529  2.823529  2.829787  3.121951 51.500000 50.500000 48.500000 31.666666 40.500000 42.000000 
average row locality = 9585/1376 = 6.965843
number of total memory accesses made:
dram[0]:         0         0         0         0         0         0         0         0         0         0         0         0         0         0         0         0 
dram[1]:         0         0         0         0         0         0         0         0         0         0         0         0         0         0         0         0 
dram[2]:         0         0         0         0         0         0         0         0         0         0         0         0         0         0         0         0 
dram[3]:         0         0         0         0         0         0         0         0         0         0         0         0         0         0         0         0 
dram[4]:         0         0         0         0         0         0         0         0         0         0         0         0         0         0         0         0 
dram[5]:         0         0         0         0         0         0         0         0         0         0         0         0         0         0         0         0 
total accesses: 0
min_bank_accesses = 0!
min_chip_accesses = 0!
number of total read accesses:
dram[0]:        68        66        64        64        74        74        96        96        94        93        64        64        64        64        64        64 
dram[1]:        68        68        64        64        74        74        96        96        94        93        64        64        64        64        64        64 
dram[2]:        66        68        64        64        74        76        96        96        94        92        64        64        64        64        64        64 
dram[3]:        66        68        64        64        74        76        96        96        94        92        64        64        64        64        64        64 
dram[4]:        66        66        64        64        74        76        96        96        94        92        64        64        64        64        64        64 
dram[5]:        66        66        64        64        74        76        96        96        94        92        64        64        64        64        64        64 
total reads: 7040
bank skew: 96/64 = 1.50
chip skew: 1175/1172 = 1.00
number of total write accesses:
dram[0]:        35        38        34        37        15        14         0         0        34        40        37        37        32        31        17        14 
dram[1]:        37        38        36        36        17        14         0         0        31        40        38        35        32        31        15        14 
dram[2]:        39        37        38        36        15        14         0         0        35        41        36        36        33        31        15        15 
dram[3]:        37        41        36        33        17        16         0         0        42        36        36        36        32        31        17        18 
dram[4]:        39        36        40        38        17        16         0         0        42        38        39        37        32        34        15        18 
dram[5]:        38        36        35        38        13        14         0         0        39        36        39        37        33        31        17        20 
total reads: 2545
min_bank_accesses = 0!
chip skew: 441/414 = 1.07
average mf latency per bank:
dram[0]:       2610      2543      2465      2438      3162      3209      3357      3536      2752      2584      2323      2396      2454      2437      3535      3629
dram[1]:       2575      2497      2459      2494      3062      3264      3529      3558      2654      2687      2355      2454      2398      2582      3555      3669
dram[2]:       2516      2526      2457      2503      3064      3186      3580      3632      2572      2645      2471      2490      2479      2536      3591      3657
dram[3]:       2568      2432      2460      2526      3025      3176      3595      3707      2547      2587      2556      2410      2433      2521      3678      3297
dram[4]:       2482      2541      2429      2496      3027      3125      3501      3638      2662      2534      2405      2375      2516      2394      3567      3532
dram[5]:       2516      2572      2523      2448      3225      3129      3661      3439      2644      2578      2397      2409      2407      2538      3545      3349
maximum mf latency per bank:
dram[0]:        286       314       286       296       345       471       425       595       393       370       510       462       312       310       329       317
dram[1]:        278       456       340       474       331       537       509       600       361       472       518       467       308       452       309       469
dram[2]:        314       317       312       325       383       631       691       613       369       371       437       536       325       315       306       321
dram[3]:        302       308       277       277       391       456       683       650       423       326       528       674       289       290       420       349
dram[4]:        277       278       327       372       389       438       623       686       352       357       495       570       356       341       321       355
dram[5]:        299       300       311       310       465       367       714       465       362       362       482       526       343       293       329       366

Number of Memory Banks Accessed per Memory Operation per Warp (from 0):
0	0	0	0	0	0	0	0	0	0	0	0	0	0	0	0	0	0	0	0	0	0	0	0	0	0	0	0	0	0	0	0	0	0	0	0	0	0	0	0	0	0	0	0	0	0	0	0	0	0	0	0	0	0	0	0	0	0	0	0	0	0	0	0	0	0	0	0	0	0	0	0	0	0	0	0	0	0	0	0	0	0	0	0	0	0	0	0	0	0	0	0	0	0	0	0	
Average # of Memory Banks Accessed per Memory Operation per Warp=-nan

position of mrq chosen
0	0	0	0	0	0	0	0	0	0	0	0	0	0	0	0	

average position of mrq chosen = -nan
Memory Partition 0: 
Cache L2_bank_000:
MSHR contents

Cache L2_bank_001:
MSHR contents

In Dram Latency Queue (total = 0): 
DRAM[0]: 16 bks, busW=4 BL=8 CL=12, tRRD=2 tCCD=6, tRCD=12 tRAS=28 tRP=12 tRC=40
n_cmd=3747910 n_nop=3744493 n_act=239 n_pre=223 n_req=1588 n_rd=2346 n_write=609 bw_util=0.001577
n_activity=28527 dram_eff=0.2072
bk0: 136a 3747065i bk1: 132a 3747131i bk2: 128a 3747195i bk3: 128a 3747146i bk4: 148a 3746887i bk5: 148a 3746815i bk6: 192a 3746579i bk7: 192a 3746608i bk8: 188a 3745814i bk9: 186a 3745889i bk10: 128a 3746770i bk11: 128a 3746800i bk12: 128a 3747041i bk13: 128a 3747105i bk14: 128a 3747330i bk15: 128a 3747403i 
dram_util_bins: 0 0 0 0 0 0 0 0 0 0
dram_eff_bins: 0 0 0 0 0 0 0 0 0 0
mrqq: max=16 avg=0.00245043
Memory Partition 1: 
Cache L2_bank_002:
MSHR contents

Cache L2_bank_003:
MSHR contents

In Dram Latency Queue (total = 0): 
DRAM[1]: 16 bks, busW=4 BL=8 CL=12, tRRD=2 tCCD=6, tRCD=12 tRAS=28 tRP=12 tRC=40
n_cmd=3747910 n_nop=3744478 n_act=238 n_pre=222 n_req=1589 n_rd=2350 n_write=622 bw_util=0.001586
n_activity=28533 dram_eff=0.2083
bk0: 136a 3747111i bk1: 136a 3746982i bk2: 128a 3747171i bk3: 128a 3747216i bk4: 148a 3746853i bk5: 148a 3746988i bk6: 192a 3746646i bk7: 192a 3746606i bk8: 188a 3745984i bk9: 186a 3745930i bk10: 128a 3746795i bk11: 128a 3746810i bk12: 128a 3747151i bk13: 128a 3747084i bk14: 128a 3747368i bk15: 128a 3747339i 
dram_util_bins: 0 0 0 0 0 0 0 0 0 0
dram_eff_bins: 0 0 0 0 0 0 0 0 0 0
mrqq: max=16 avg=0.00236105
Memory Partition 2: 
Cache L2_bank_004:
MSHR contents

Cache L2_bank_005:
MSHR contents

In Dram Latency Queue (total = 0): 
DRAM[2]: 16 bks, busW=4 BL=8 CL=12, tRRD=2 tCCD=6, tRCD=12 tRAS=28 tRP=12 tRC=40
n_cmd=3747910 n_nop=3744510 n_act=226 n_pre=210 n_req=1595 n_rd=2348 n_write=616 bw_util=0.001582
n_activity=27920 dram_eff=0.2123
bk0: 132a 3747130i bk1: 136a 3747097i bk2: 128a 3747152i bk3: 128a 3747187i bk4: 148a 3746947i bk5: 152a 3746975i bk6: 192a 3746650i bk7: 192a 3746670i bk8: 188a 3746045i bk9: 184a 3745892i bk10: 128a 3746837i bk11: 128a 3746733i bk12: 128a 3747084i bk13: 128a 3747070i bk14: 128a 3747380i bk15: 128a 3747352i 
dram_util_bins: 0 0 0 0 0 0 0 0 0 0
dram_eff_bins: 0 0 0 0 0 0 0 0 0 0
mrqq: max=16 avg=0.00247738
Memory Partition 3: 
Cache L2_bank_006:
MSHR contents

Cache L2_bank_007:
MSHR contents

In Dram Latency Queue (total = 0): 
DRAM[3]: 16 bks, busW=4 BL=8 CL=12, tRRD=2 tCCD=6, tRCD=12 tRAS=28 tRP=12 tRC=40
n_cmd=3747910 n_nop=3744492 n_act=228 n_pre=212 n_req=1602 n_rd=2348 n_write=630 bw_util=0.001589
n_activity=28116 dram_eff=0.2118
bk0: 132a 3747110i bk1: 136a 3746994i bk2: 128a 3747207i bk3: 128a 3747244i bk4: 148a 3746927i bk5: 152a 3746864i bk6: 192a 3746598i bk7: 192a 3746716i bk8: 188a 3745959i bk9: 184a 3745995i bk10: 128a 3746641i bk11: 128a 3746660i bk12: 128a 3747078i bk13: 128a 3747099i bk14: 128a 3747353i bk15: 128a 3747272i 
dram_util_bins: 0 0 0 0 0 0 0 0 0 0
dram_eff_bins: 0 0 0 0 0 0 0 0 0 0
mrqq: max=16 avg=0.00362015
Memory Partition 4: 
Cache L2_bank_008:
MSHR contents

Cache L2_bank_009:
MSHR contents

In Dram Latency Queue (total = 0): 
DRAM[4]: 16 bks, busW=4 BL=8 CL=12, tRRD=2 tCCD=6, tRCD=12 tRAS=28 tRP=12 tRC=40
n_cmd=3747910 n_nop=3744482 n_act=225 n_pre=209 n_req=1613 n_rd=2344 n_write=650 bw_util=0.001598
n_activity=28092 dram_eff=0.2132
bk0: 132a 3747135i bk1: 132a 3747171i bk2: 128a 3747135i bk3: 128a 3747129i bk4: 148a 3746819i bk5: 152a 3746936i bk6: 192a 3746770i bk7: 192a 3746726i bk8: 188a 3745976i bk9: 184a 3745856i bk10: 128a 3746710i bk11: 128a 3746790i bk12: 128a 3747041i bk13: 128a 3747120i bk14: 128a 3747306i bk15: 128a 3747287i 
dram_util_bins: 0 0 0 0 0 0 0 0 0 0
dram_eff_bins: 0 0 0 0 0 0 0 0 0 0
mrqq: max=16 avg=0.00317617
Memory Partition 5: 
Cache L2_bank_010:
MSHR contents

Cache L2_bank_011:
MSHR contents

In Dram Latency Queue (total = 0): 
DRAM[5]: 16 bks, busW=4 BL=8 CL=12, tRRD=2 tCCD=6, tRCD=12 tRAS=28 tRP=12 tRC=40
n_cmd=3747910 n_nop=3744521 n_act=221 n_pre=205 n_req=1598 n_rd=2344 n_write=619 bw_util=0.001581
n_activity=27649 dram_eff=0.2143
bk0: 132a 3747107i bk1: 132a 3747100i bk2: 128a 3747227i bk3: 128a 3747179i bk4: 148a 3746945i bk5: 152a 3746982i bk6: 192a 3746695i bk7: 192a 3746631i bk8: 188a 3745886i bk9: 184a 3746047i bk10: 128a 3746724i bk11: 128a 3746797i bk12: 128a 3746983i bk13: 128a 3747098i bk14: 128a 3747336i bk15: 128a 3747260i 
dram_util_bins: 0 0 0 0 0 0 0 0 0 0
dram_eff_bins: 0 0 0 0 0 0 0 0 0 0
mrqq: max=16 avg=0.00276367

========= L2 cache stats =========
L2_cache_bank[0]: Access = 14775, Miss = 588, Miss_rate = 0.040, Pending_hits = 116, Reservation_fails = 945
L2_cache_bank[1]: Access = 14761, Miss = 585, Miss_rate = 0.040, Pending_hits = 113, Reservation_fails = 620
L2_cache_bank[2]: Access = 14612, Miss = 588, Miss_rate = 0.040, Pending_hits = 113, Reservation_fails = 1146
L2_cache_bank[3]: Access = 14981, Miss = 587, Miss_rate = 0.039, Pending_hits = 115, Reservation_fails = 822
L2_cache_bank[4]: Access = 14716, Miss = 586, Miss_rate = 0.040, Pending_hits = 120, Reservation_fails = 757
L2_cache_bank[5]: Access = 15002, Miss = 588, Miss_rate = 0.039, Pending_hits = 100, Reservation_fails = 746
L2_cache_bank[6]: Access = 14909, Miss = 586, Miss_rate = 0.039, Pending_hits = 122, Reservation_fails = 788
L2_cache_bank[7]: Access = 14634, Miss = 588, Miss_rate = 0.040, Pending_hits = 108, Reservation_fails = 753
L2_cache_bank[8]: Access = 14920, Miss = 586, Miss_rate = 0.039, Pending_hits = 122, Reservation_fails = 624
L2_cache_bank[9]: Access = 14723, Miss = 586, Miss_rate = 0.040, Pending_hits = 113, Reservation_fails = 882
L2_cache_bank[10]: Access = 14880, Miss = 586, Miss_rate = 0.039, Pending_hits = 124, Reservation_fails = 543
L2_cache_bank[11]: Access = 14725, Miss = 586, Miss_rate = 0.040, Pending_hits = 102, Reservation_fails = 791
L2_total_cache_accesses = 177638
L2_total_cache_misses = 7040
L2_total_cache_miss_rate = 0.0396
L2_total_cache_pending_hits = 1368
L2_total_cache_reservation_fails = 9417
L2_total_cache_breakdown:
	L2_cache_stats_breakdown[GLOBAL_ACC_R][HIT] = 163902
	L2_cache_stats_breakdown[GLOBAL_ACC_R][HIT_RESERVED] = 963
	L2_cache_stats_breakdown[GLOBAL_ACC_R][MISS] = 4933
	L2_cache_stats_breakdown[GLOBAL_ACC_R][RESERVATION_FAIL] = 7429
	L2_cache_stats_breakdown[CONST_ACC_R][HIT] = 63
	L2_cache_stats_breakdown[CONST_ACC_R][HIT_RESERVED] = 9
	L2_cache_stats_breakdown[CONST_ACC_R][MISS] = 3
	L2_cache_stats_breakdown[CONST_ACC_R][RESERVATION_FAIL] = 306
	L2_cache_stats_breakdown[GLOBAL_ACC_W][HIT] = 4970
	L2_cache_stats_breakdown[GLOBAL_ACC_W][HIT_RESERVED] = 341
	L2_cache_stats_breakdown[GLOBAL_ACC_W][MISS] = 2079
	L2_cache_stats_breakdown[GLOBAL_ACC_W][RESERVATION_FAIL] = 379
	L2_cache_stats_breakdown[INST_ACC_R][HIT] = 295
	L2_cache_stats_breakdown[INST_ACC_R][HIT_RESERVED] = 55
	L2_cache_stats_breakdown[INST_ACC_R][MISS] = 25
	L2_cache_stats_breakdown[INST_ACC_R][RESERVATION_FAIL] = 1303
L2_cache_data_port_util = 0.020
L2_cache_fill_port_util = 0.001

icnt_total_pkts_mem_to_simt=858480
icnt_total_pkts_simt_to_mem=191953
LD_mem_lat_dist  0 0 0 0 0 0 0 0 0 0 0 0 0 0 0 0 0 0 0 0 0 0 0 0 0 0 0
ST_mem_lat_dist  0 0 0 0 0 0 0 0 0 0 0 0 0 0 0 0 0 0 0 0 0 0 0 0 0 0 0
----------------------------Interconnect-DETAILS--------------------------------
Class 0:
Packet latency average = 8.86067
	minimum = 6
	maximum = 54
Network latency average = 8.49539
	minimum = 6
	maximum = 46
Slowest packet = 352469
Flit latency average = 6.97992
	minimum = 6
	maximum = 42
Slowest flit = 1042650
Fragmentation average = 0
	minimum = 0
	maximum = 0
Injected packet rate average = 0.00399093
	minimum = 0.00308784 (at node 6)
	maximum = 0.00585626 (at node 16)
Accepted packet rate average = 0.00399093
	minimum = 0.00308784 (at node 6)
	maximum = 0.00585626 (at node 16)
Injected flit rate average = 0.0108686
	minimum = 0.00365572 (at node 6)
	maximum = 0.0227152 (at node 26)
Accepted flit rate average= 0.0108686
	minimum = 0.00308784 (at node 22)
	maximum = 0.0168589 (at node 2)
Injected packet length average = 2.72332
Accepted packet length average = 2.72332
Total in-flight flits = 0 (0 measured)
====== Overall Traffic Statistics ======
====== Traffic class 0 ======
Packet latency average = 10.7227 (4 samples)
	minimum = 6 (4 samples)
	maximum = 110 (4 samples)
Network latency average = 10.0831 (4 samples)
	minimum = 6 (4 samples)
	maximum = 100.5 (4 samples)
Flit latency average = 8.52142 (4 samples)
	minimum = 6 (4 samples)
	maximum = 98.5 (4 samples)
Fragmentation average = 0 (4 samples)
	minimum = 0 (4 samples)
	maximum = 0 (4 samples)
Injected packet rate average = 0.0109445 (4 samples)
	minimum = 0.00852362 (4 samples)
	maximum = 0.0132963 (4 samples)
Accepted packet rate average = 0.0109445 (4 samples)
	minimum = 0.00852362 (4 samples)
	maximum = 0.0132963 (4 samples)
Injected flit rate average = 0.0315183 (4 samples)
	minimum = 0.0118295 (4 samples)
	maximum = 0.0579577 (4 samples)
Accepted flit rate average = 0.0315183 (4 samples)
	minimum = 0.0156135 (4 samples)
	maximum = 0.048201 (4 samples)
Injected packet size average = 2.87983 (4 samples)
Accepted packet size average = 2.87983 (4 samples)
Hops average = 1 (4 samples)
----------------------------END-of-Interconnect-DETAILS-------------------------


gpgpu_simulation_time = 0 days, 1 hrs, 40 min, 5 sec (6005 sec)
gpgpu_simulation_rate = 13047 (inst/sec)
gpgpu_simulation_rate = 472 (cycle/sec)
7 2 1 0 4 1 4 9 6 9 0 6 9 0 1 5 9 7 3 4 9 6 6 5 4 0 7 4
