

        *** GPGPU-Sim Simulator Version 3.2.2  [build 0] ***


GPGPU-Sim PTX: simulation mode 0 (can change with PTX_SIM_MODE_FUNC environment variable:
               1=functional simulation only, 0=detailed performance simulator)
GPGPU-Sim: Configuration options:

-network_mode                           1 # Interconnection network mode
-inter_config_file   config_fermi_islip.icnt # Interconnection network config file
-gpgpu_ptx_use_cuobjdump                    1 # Use cuobjdump to extract ptx and sass from binaries
-gpgpu_experimental_lib_support                    0 # Try to extract code from cuda libraries [Broken because of unknown cudaGetExportTable]
-gpgpu_ptx_convert_to_ptxplus                    0 # Convert SASS (native ISA) to ptxplus and run ptxplus
-gpgpu_ptx_force_max_capability                   20 # Force maximum compute capability
-gpgpu_ptx_inst_debug_to_file                    0 # Dump executed instructions' debug information to file
-gpgpu_ptx_inst_debug_file       inst_debug.txt # Executed instructions' debug output file
-gpgpu_ptx_inst_debug_thread_uid                    1 # Thread UID for executed instructions' debug output
-gpgpu_simd_model                       1 # 1 = post-dominator
-gpgpu_shader_core_pipeline              1536:32 # shader core pipeline config, i.e., {<nthread>:<warpsize>}
-gpgpu_tex_cache:l1  4:128:24,L:R:m:N:L,F:128:4,128:2 # per-shader L1 texture cache  (READ-ONLY) config  {<nsets>:<bsize>:<assoc>,<rep>:<wr>:<alloc>:<wr_alloc>,<mshr>:<N>:<merge>,<mq>:<rf>}
-gpgpu_const_cache:l1 64:64:2,L:R:f:N:L,A:2:32,4 # per-shader L1 constant memory cache  (READ-ONLY) config  {<nsets>:<bsize>:<assoc>,<rep>:<wr>:<alloc>:<wr_alloc>,<mshr>:<N>:<merge>,<mq>} 
-gpgpu_cache:il1     4:128:4,L:R:f:N:L,A:2:32,4 # shader L1 instruction cache config  {<nsets>:<bsize>:<assoc>,<rep>:<wr>:<alloc>:<wr_alloc>,<mshr>:<N>:<merge>,<mq>} 
-gpgpu_cache:dl1     32:128:4,L:L:m:N:H,A:32:8,8 # per-shader L1 data cache config  {<nsets>:<bsize>:<assoc>,<rep>:<wr>:<alloc>:<wr_alloc>,<mshr>:<N>:<merge>,<mq> | none}
-gpgpu_cache:dl1PrefL1                 none # per-shader L1 data cache config  {<nsets>:<bsize>:<assoc>,<rep>:<wr>:<alloc>:<wr_alloc>,<mshr>:<N>:<merge>,<mq> | none}
-gpgpu_cache:dl1PreShared                 none # per-shader L1 data cache config  {<nsets>:<bsize>:<assoc>,<rep>:<wr>:<alloc>:<wr_alloc>,<mshr>:<N>:<merge>,<mq> | none}
-gmem_skip_L1D                          0 # global memory access skip L1D cache (implements -Xptxas -dlcm=cg, default=no skip)
-gpgpu_perfect_mem                      0 # enable perfect memory mode (no cache miss)
-n_regfile_gating_group                    4 # group of lanes that should be read/written together)
-gpgpu_clock_gated_reg_file                    0 # enable clock gated reg file for power calculations
-gpgpu_clock_gated_lanes                    0 # enable clock gated lanes for power calculations
-gpgpu_shader_registers                32768 # Number of registers per shader core. Limits number of concurrent CTAs. (default 8192)
-gpgpu_shader_cta                       8 # Maximum number of concurrent CTAs in shader (default 8)
-gpgpu_num_cta_barriers                   16 # Maximum number of named barriers per CTA (default 16)
-gpgpu_n_clusters                      15 # number of processing clusters
-gpgpu_n_cores_per_cluster                    1 # number of simd cores per cluster
-gpgpu_n_cluster_ejection_buffer_size                    8 # number of packets in ejection buffer
-gpgpu_n_ldst_response_buffer_size                    2 # number of response packets in ld/st unit ejection buffer
-gpgpu_shmem_size                   16384 # Size of shared memory per shader core (default 16kB)
-gpgpu_shmem_size                   49152 # Size of shared memory per shader core (default 16kB)
-gpgpu_shmem_size_PrefL1                16384 # Size of shared memory per shader core (default 16kB)
-gpgpu_shmem_size_PrefShared                16384 # Size of shared memory per shader core (default 16kB)
-gpgpu_shmem_num_banks                   32 # Number of banks in the shared memory in each shader core (default 16)
-gpgpu_shmem_limited_broadcast                    0 # Limit shared memory to do one broadcast per cycle (default on)
-gpgpu_shmem_warp_parts                    1 # Number of portions a warp is divided into for shared memory bank conflict check 
-gpgpu_warpdistro_shader                   -1 # Specify which shader core to collect the warp size distribution from
-gpgpu_warp_issue_shader                    0 # Specify which shader core to collect the warp issue distribution from
-gpgpu_local_mem_map                    1 # Mapping from local memory space address to simulated GPU physical address space (default = enabled)
-gpgpu_num_reg_banks                   16 # Number of register banks (default = 8)
-gpgpu_reg_bank_use_warp_id                    0 # Use warp ID in mapping registers to banks (default = off)
-gpgpu_operand_collector_num_units_sp                    6 # number of collector units (default = 4)
-gpgpu_operand_collector_num_units_sfu                    8 # number of collector units (default = 4)
-gpgpu_operand_collector_num_units_mem                    2 # number of collector units (default = 2)
-gpgpu_operand_collector_num_units_gen                    0 # number of collector units (default = 0)
-gpgpu_operand_collector_num_in_ports_sp                    2 # number of collector unit in ports (default = 1)
-gpgpu_operand_collector_num_in_ports_sfu                    1 # number of collector unit in ports (default = 1)
-gpgpu_operand_collector_num_in_ports_mem                    1 # number of collector unit in ports (default = 1)
-gpgpu_operand_collector_num_in_ports_gen                    0 # number of collector unit in ports (default = 0)
-gpgpu_operand_collector_num_out_ports_sp                    2 # number of collector unit in ports (default = 1)
-gpgpu_operand_collector_num_out_ports_sfu                    1 # number of collector unit in ports (default = 1)
-gpgpu_operand_collector_num_out_ports_mem                    1 # number of collector unit in ports (default = 1)
-gpgpu_operand_collector_num_out_ports_gen                    0 # number of collector unit in ports (default = 0)
-gpgpu_coalesce_arch                   13 # Coalescing arch (default = 13, anything else is off for now)
-gpgpu_num_sched_per_core                    1 # Number of warp schedulers per core
-gpgpu_max_insn_issue_per_warp                    1 # Max number of instructions that can be issued per warp in one cycle by scheduler
-gpgpu_simt_core_sim_order                    1 # Select the simulation order of cores in a cluster (0=Fix, 1=Round-Robin)
-gpgpu_pipeline_widths        2,1,1,2,1,1,2 # Pipeline widths ID_OC_SP,ID_OC_SFU,ID_OC_MEM,OC_EX_SP,OC_EX_SFU,OC_EX_MEM,EX_WB
-gpgpu_num_sp_units                     2 # Number of SP units (default=1)
-gpgpu_num_sfu_units                    1 # Number of SF units (default=1)
-gpgpu_num_mem_units                    1 # Number if ldst units (default=1) WARNING: not hooked up to anything
-gpgpu_scheduler                      gto # Scheduler configuration: < lrr | gto | two_level_active > If two_level_active:<num_active_warps>:<inner_prioritization>:<outer_prioritization>For complete list of prioritization values see shader.h enum scheduler_prioritization_typeDefault: gto
-gpgpu_dram_scheduler                    1 # 0 = fifo, 1 = FR-FCFS (defaul)
-gpgpu_dram_partition_queues              8:8:8:8 # i2$:$2d:d2$:$2i
-l2_ideal                               0 # Use a ideal L2 cache that always hit
-gpgpu_cache:dl2     64:128:8,L:B:m:W:L,A:32:4,4:0,32 # unified banked L2 data cache config  {<nsets>:<bsize>:<assoc>,<rep>:<wr>:<alloc>:<wr_alloc>,<mshr>:<N>:<merge>,<mq>}
-gpgpu_cache:dl2_texture_only                    0 # L2 cache used for texture only
-gpgpu_n_mem                            6 # number of memory modules (e.g. memory controllers) in gpu
-gpgpu_n_sub_partition_per_mchannel                    2 # number of memory subpartition in each memory module
-gpgpu_n_mem_per_ctrlr                    2 # number of memory chips per memory controller
-gpgpu_memlatency_stat                   14 # track and display latency statistics 0x2 enables MC, 0x4 enables queue logs
-gpgpu_frfcfs_dram_sched_queue_size                   16 # 0 = unlimited (default); # entries per chip
-gpgpu_dram_return_queue_size                  116 # 0 = unlimited (default); # entries per chip
-gpgpu_dram_buswidth                    4 # default = 4 bytes (8 bytes per cycle at DDR)
-gpgpu_dram_burst_length                    8 # Burst length of each DRAM request (default = 4 data bus cycle)
-dram_data_command_freq_ratio                    4 # Frequency ratio between DRAM data bus and command bus (default = 2 times, i.e. DDR)
-gpgpu_dram_timing_opt nbk=16:CCD=2:RRD=6:RCD=12:RAS=28:RP=12:RC=40: CL=12:WL=4:CDLR=5:WR=12:nbkgrp=4:CCDL=3:RTPL=2 # DRAM timing parameters = {nbk:tCCD:tRRD:tRCD:tRAS:tRP:tRC:CL:WL:tCDLR:tWR:nbkgrp:tCCDL:tRTPL}
-rop_latency                          120 # ROP queue latency (default 85)
-dram_latency                         100 # DRAM latency (default 30)
-gpgpu_mem_addr_mapping dramid@8;00000000.00000000.00000000.00000000.0000RRRR.RRRRRRRR.BBBCCCCB.CCSSSSSS # mapping memory address to dram model {dramid@<start bit>;<memory address map>}
-gpgpu_mem_addr_test                    0 # run sweep test to check address mapping for aliased address
-gpgpu_mem_address_mask                    1 # 0 = old addressing mask, 1 = new addressing mask, 2 = new add. mask + flipped bank sel and chip sel bits
-gpuwattch_xml_file  gpuwattch_gtx480.xml # GPUWattch XML file
-power_simulation_enabled                    1 # Turn on power simulator (1=On, 0=Off)
-power_per_cycle_dump                    0 # Dump detailed power output each cycle
-power_trace_enabled                    0 # produce a file for the power trace (1=On, 0=Off)
-power_trace_zlevel                     6 # Compression level of the power trace output log (0=no comp, 9=highest)
-steady_power_levels_enabled                    0 # produce a file for the steady power levels (1=On, 0=Off)
-steady_state_definition                  8:4 # allowed deviation:number of samples
-gpgpu_max_cycle                        0 # terminates gpu simulation early (0 = no limit)
-gpgpu_max_insn                         0 # terminates gpu simulation early (0 = no limit)
-gpgpu_max_cta                          0 # terminates gpu simulation early (0 = no limit)
-gpgpu_runtime_stat                   500 # display runtime statistics such as dram utilization {<freq>:<flag>}
-liveness_message_freq                    1 # Minimum number of seconds between simulation liveness messages (0 = always print)
-gpgpu_flush_l1_cache                    0 # Flush L1 cache at the end of each kernel call
-gpgpu_flush_l2_cache                    0 # Flush L2 cache at the end of each kernel call
-gpgpu_deadlock_detect                    1 # Stop the simulation at deadlock (1=on (default), 0=off)
-gpgpu_ptx_instruction_classification                    0 # if enabled will classify ptx instruction types per kernel (Max 255 kernels now)
-gpgpu_ptx_sim_mode                     0 # Select between Performance (default) or Functional simulation (1)
-gpgpu_clock_domains 700.0:700.0:700.0:924.0 # Clock Domain Frequencies in MhZ {<Core Clock>:<ICNT Clock>:<L2 Clock>:<DRAM Clock>}
-gpgpu_max_concurrent_kernel                    8 # maximum kernels that can run concurrently on GPU
-gpgpu_cflog_interval                    0 # Interval between each snapshot in control flow logger
-visualizer_enabled                     0 # Turn on visualizer output (1=On, 0=Off)
-visualizer_outputfile                 NULL # Specifies the output log file for visualizer
-visualizer_zlevel                      6 # Compression level of the visualizer output log (0=no comp, 9=highest)
-trace_enabled                          0 # Turn on traces
-trace_components                    none # comma seperated list of traces to enable. Complete list found in trace_streams.tup. Default none
-trace_sampling_core                    0 # The core which is printed using CORE_DPRINTF. Default 0
-trace_sampling_memory_partition                   -1 # The memory partition which is printed using MEMPART_DPRINTF. Default -1 (i.e. all)
-enable_ptx_file_line_stats                    1 # Turn on PTX source line statistic profiling. (1 = On)
-ptx_line_stats_filename gpgpu_inst_stats.txt # Output file for PTX source line statistics.
-save_embedded_ptx                      0 # saves ptx files embedded in binary as <n>.ptx
-keep                                   0 # keep intermediate files created by GPGPU-Sim when interfacing with external programs
-gpgpu_ptx_save_converted_ptxplus                    0 # Saved converted ptxplus to a file
-ptx_opcode_latency_int         4,13,4,5,145 # Opcode latencies for integers <ADD,MAX,MUL,MAD,DIV>Default 1,1,19,25,145
-ptx_opcode_latency_fp          4,13,4,5,39 # Opcode latencies for single precision floating points <ADD,MAX,MUL,MAD,DIV>Default 1,1,1,1,30
-ptx_opcode_latency_dp         8,19,8,8,330 # Opcode latencies for double precision floating points <ADD,MAX,MUL,MAD,DIV>Default 8,8,8,8,335
-ptx_opcode_initiation_int            1,2,2,1,8 # Opcode initiation intervals for integers <ADD,MAX,MUL,MAD,DIV>Default 1,1,4,4,32
-ptx_opcode_initiation_fp            1,2,1,1,4 # Opcode initiation intervals for single precision floating points <ADD,MAX,MUL,MAD,DIV>Default 1,1,1,1,5
-ptx_opcode_initiation_dp         8,16,8,8,130 # Opcode initiation intervals for double precision floating points <ADD,MAX,MUL,MAD,DIV>Default 8,8,8,8,130
DRAM Timing Options:
nbk                                    16 # number of banks
CCD                                     2 # column to column delay
RRD                                     6 # minimal delay between activation of rows in different banks
RCD                                    12 # row to column delay
RAS                                    28 # time needed to activate row
RP                                     12 # time needed to precharge (deactivate) row
RC                                     40 # row cycle time
CDLR                                    5 # switching from write to read (changes tWTR)
WR                                     12 # last data-in to row precharge
CL                                     12 # CAS latency
WL                                      4 # Write latency
nbkgrp                                  4 # number of bank groups
CCDL                                    3 # column to column delay between accesses to different bank groups
RTPL                                    2 # read to precharge delay between accesses to different bank groups
Total number of memory sub partition = 12
addr_dec_mask[CHIP]  = 0000000000000000 	high:64 low:0
addr_dec_mask[BK]    = 000000000000e100 	high:16 low:8
addr_dec_mask[ROW]   = 000000000fff0000 	high:28 low:16
addr_dec_mask[COL]   = 0000000000001eff 	high:13 low:0
addr_dec_mask[BURST] = 000000000000003f 	high:6 low:0
sub_partition_id_mask = 0000000000000100
GPGPU-Sim uArch: clock freqs: 700000000.000000:700000000.000000:700000000.000000:924000000.000000
GPGPU-Sim uArch: clock periods: 0.00000000142857142857:0.00000000142857142857:0.00000000142857142857:0.00000000108225108225
*** Initializing Memory Statistics ***
GPGPU-Sim uArch: interconnect node map (shaderID+MemID to icntID)
GPGPU-Sim uArch: Memory nodes ID start from index: 15
GPGPU-Sim uArch:    0   1   2   3   4
GPGPU-Sim uArch:    5   6   7   8   9
GPGPU-Sim uArch:   10  11  12  13  14
GPGPU-Sim uArch:   15  16  17  18  19
GPGPU-Sim uArch:   20  21  22  23  24
GPGPU-Sim uArch:   25  26
GPGPU-Sim uArch: interconnect node reverse map (icntID to shaderID+MemID)
GPGPU-Sim uArch: Memory nodes start from ID: 15
GPGPU-Sim uArch:    0   1   2   3   4
GPGPU-Sim uArch:    5   6   7   8   9
GPGPU-Sim uArch:   10  11  12  13  14
GPGPU-Sim uArch:   15  16  17  18  19
GPGPU-Sim uArch:   20  21  22  23  24
GPGPU-Sim uArch:   25  26
59223c5836e436fa179bac05233b3051  /home/kishore/project_source/gpu_class_proj/gpgpusim-benchmarks-master/bin/release/NQU
GPGPU-Sim uArch: performance model initialization complete.
GPGPU-Sim PTX: __cudaRegisterFatBinary, fat_cubin_handle = 1, filename=nqueen.cu
self exe links to: /home/kishore/project_source/gpu_class_proj/gpgpusim-benchmarks-master/bin/release/NQU
Running md5sum using "md5sum /home/kishore/project_source/gpu_class_proj/gpgpusim-benchmarks-master/bin/release/NQU "
Running cuobjdump using "$CUDA_INSTALL_PATH/bin/cuobjdump -ptx -elf -sass /home/kishore/project_source/gpu_class_proj/gpgpusim-benchmarks-master/bin/release/NQU > _cuobjdump_complete_output_Yw8Buv"
Parsing file _cuobjdump_complete_output_Yw8Buv
######### cuobjdump parser ########
## Adding new section PTX
Adding ptx filename: _cuobjdump_1.ptx
Adding arch: sm_10
Adding identifier: nqueen.cu
## Adding new section ELF
Adding arch: sm_10
Adding identifier: nqueen.cu
## Adding new section PTX
Adding ptx filename: _cuobjdump_2.ptx
Adding arch: sm_20
Adding identifier: nqueen.cu
## Adding new section ELF
Adding arch: sm_20
Adding identifier: nqueen.cu
Done parsing!!!
GPGPU-Sim PTX: __cudaRegisterFunction _Z24solve_nqueen_cuda_kerneliiPjS_S_S_i : hostFun 0x0x403b20, fat_cubin_handle = 1
GPGPU-Sim PTX: allocating shared region for "__cuda___cuda_local_var_65604_39_non_const_sum44" from 0x0 to 0x180 (shared memory space)
GPGPU-Sim PTX: allocating shared region for "__cuda___cuda_local_var_65599_39_non_const_mask428" from 0x180 to 0x1080 (shared memory space)
GPGPU-Sim PTX: allocating shared region for "__cuda___cuda_local_var_65601_39_non_const_r_mask4268" from 0x1080 to 0x1f80 (shared memory space)
GPGPU-Sim PTX: allocating shared region for "__cuda___cuda_local_var_65600_39_non_const_l_mask8108" from 0x1f80 to 0x2e80 (shared memory space)
GPGPU-Sim PTX: allocating shared region for "__cuda___cuda_local_var_65602_39_non_const_m11948" from 0x2e80 to 0x3d80 (shared memory space)
GPGPU-Sim PTX: instruction assembly for function '_Z24solve_nqueen_cuda_kerneliiPjS_S_S_i'...   done.
GPGPU-Sim PTX: finding reconvergence points for '_Z24solve_nqueen_cuda_kerneliiPjS_S_S_i'...
GPGPU-Sim PTX: Finding dominators for '_Z24solve_nqueen_cuda_kerneliiPjS_S_S_i'...
GPGPU-Sim PTX: Finding immediate dominators for '_Z24solve_nqueen_cuda_kerneliiPjS_S_S_i'...
GPGPU-Sim PTX: Finding postdominators for '_Z24solve_nqueen_cuda_kerneliiPjS_S_S_i'...
GPGPU-Sim PTX: Finding immediate postdominators for '_Z24solve_nqueen_cuda_kerneliiPjS_S_S_i'...
GPGPU-Sim PTX: pre-decoding instructions for '_Z24solve_nqueen_cuda_kerneliiPjS_S_S_i'...
GPGPU-Sim PTX: reconvergence points for _Z24solve_nqueen_cuda_kerneliiPjS_S_S_i...
GPGPU-Sim PTX:  1 (potential) branch divergence @  PC=0x058 (_1.ptx:81) @%p1 bra $Lt_0_10754;
GPGPU-Sim PTX:    immediate post dominator      @  PC=0x328 (_1.ptx:198) bar.sync 0;
GPGPU-Sim PTX:  2 (potential) branch divergence @  PC=0x198 (_1.ptx:127) @%p2 bra $Lt_0_12034;
GPGPU-Sim PTX:    immediate post dominator      @  PC=0x2f0 (_1.ptx:186) mov.u32 %r37, 0;
GPGPU-Sim PTX:  3 (potential) branch divergence @  PC=0x1b0 (_1.ptx:131) bra.uni $Lt_0_12290;
GPGPU-Sim PTX:    immediate post dominator      @  PC=0x2f0 (_1.ptx:186) mov.u32 %r37, 0;
GPGPU-Sim PTX:  4 (potential) branch divergence @  PC=0x1f8 (_1.ptx:143) @%p3 bra $Lt_0_12546;
GPGPU-Sim PTX:    immediate post dominator      @  PC=0x2f0 (_1.ptx:186) mov.u32 %r37, 0;
GPGPU-Sim PTX:  5 (potential) branch divergence @  PC=0x218 (_1.ptx:147) @%p4 bra $Lt_0_13058;
GPGPU-Sim PTX:    immediate post dominator      @  PC=0x2f0 (_1.ptx:186) mov.u32 %r37, 0;
GPGPU-Sim PTX:  6 (potential) branch divergence @  PC=0x238 (_1.ptx:153) bra.uni $Lt_0_12290;
GPGPU-Sim PTX:    immediate post dominator      @  PC=0x2f0 (_1.ptx:186) mov.u32 %r37, 0;
GPGPU-Sim PTX:  7 (potential) branch divergence @  PC=0x2d8 (_1.ptx:179) bra.uni $Lt_0_12290;
GPGPU-Sim PTX:    immediate post dominator      @  PC=0x2f0 (_1.ptx:186) mov.u32 %r37, 0;
GPGPU-Sim PTX:  8 (potential) branch divergence @  PC=0x300 (_1.ptx:188) @%p5 bra $Lt_0_11522;
GPGPU-Sim PTX:    immediate post dominator      @  PC=0x308 (_1.ptx:190) st.shared.u32 [%rd4+0], %r16;
GPGPU-Sim PTX:  9 (potential) branch divergence @  PC=0x310 (_1.ptx:191) bra.uni $Lt_0_10498;
GPGPU-Sim PTX:    immediate post dominator      @  PC=0x328 (_1.ptx:198) bar.sync 0;
GPGPU-Sim PTX: 10 (potential) branch divergence @  PC=0x340 (_1.ptx:201) @!%p6 bra $Lt_0_13570;
GPGPU-Sim PTX:    immediate post dominator      @  PC=0x368 (_1.ptx:208) bar.sync 0;
GPGPU-Sim PTX: 11 (potential) branch divergence @  PC=0x370 (_1.ptx:209) @!%p6 bra $Lt_0_14082;
GPGPU-Sim PTX:    immediate post dominator      @  PC=0x398 (_1.ptx:216) bar.sync 0;
GPGPU-Sim PTX: 12 (potential) branch divergence @  PC=0x3b0 (_1.ptx:219) @%p7 bra $Lt_0_14594;
GPGPU-Sim PTX:    immediate post dominator      @  PC=0x3d8 (_1.ptx:226) bar.sync 0;
GPGPU-Sim PTX: 13 (potential) branch divergence @  PC=0x3f0 (_1.ptx:229) @%p8 bra $Lt_0_15106;
GPGPU-Sim PTX:    immediate post dominator      @  PC=0x418 (_1.ptx:236) bar.sync 0;
GPGPU-Sim PTX: 14 (potential) branch divergence @  PC=0x430 (_1.ptx:239) @%p9 bra $Lt_0_15618;
GPGPU-Sim PTX:    immediate post dominator      @  PC=0x458 (_1.ptx:246) bar.sync 0;
GPGPU-Sim PTX: 15 (potential) branch divergence @  PC=0x470 (_1.ptx:249) @%p10 bra $Lt_0_16130;
GPGPU-Sim PTX:    immediate post dominator      @  PC=0x498 (_1.ptx:256) bar.sync 0;
GPGPU-Sim PTX: 16 (potential) branch divergence @  PC=0x4b0 (_1.ptx:259) @%p11 bra $Lt_0_16642;
GPGPU-Sim PTX:    immediate post dominator      @  PC=0x4d8 (_1.ptx:266) bar.sync 0;
GPGPU-Sim PTX: 17 (potential) branch divergence @  PC=0x4f0 (_1.ptx:269) @%p12 bra $Lt_0_17154;
GPGPU-Sim PTX:    immediate post dominator      @  PC=0x528 (_1.ptx:279) exit;
GPGPU-Sim PTX: ... end of reconvergence points for _Z24solve_nqueen_cuda_kerneliiPjS_S_S_i
GPGPU-Sim PTX: ... done pre-decoding instructions for '_Z24solve_nqueen_cuda_kerneliiPjS_S_S_i'.
GPGPU-Sim PTX: finished parsing EMBEDDED .ptx file _1.ptx
Adding _cuobjdump_2.ptx with cubin handle 1
GPGPU-Sim PTX: extracting embedded .ptx to temporary file "_ptx_Ue9dAz"
Running: cat _ptx_Ue9dAz | sed 's/.version 1.5/.version 1.4/' | sed 's/, texmode_independent//' | sed 's/\(\.extern \.const\[1\] .b8 \w\+\)\[\]/\1\[1\]/' | sed 's/const\[.\]/const\[0\]/g' > _ptx2_O3fSFD
GPGPU-Sim PTX: generating ptxinfo using "$CUDA_INSTALL_PATH/bin/ptxas --gpu-name=sm_20 -v _ptx2_O3fSFD --output-file  /dev/null 2> _ptx_Ue9dAzinfo"
GPGPU-Sim PTX: Kernel '_Z24solve_nqueen_cuda_kerneliiPjS_S_S_i' : regs=15, lmem=0, smem=15744, cmem=76
GPGPU-Sim PTX: removing ptxinfo using "rm -f _ptx_Ue9dAz _ptx2_O3fSFD _ptx_Ue9dAzinfo"
GPGPU-Sim PTX: loading globals with explicit initializers... 
GPGPU-Sim PTX: finished loading globals (0 bytes total).
GPGPU-Sim PTX: loading constants with explicit initializers...  done.
Usage: ../bin/release/NQU [-c|-g] n steps
  -c: CPU only
  -g: GPU only
  n: n-queen
  steps: step for GPU
Default to 8 queen
CUDA initialized.
GPGPU-Sim: synchronize waiting for inactive GPU simulation
GPGPU-Sim API: Stream Manager State
GPGPU-Sim: detected inactive GPU simulation thread
CPU: 11 queen = 2680  time = 1.469000 msec
GPGPU-Sim: synchronize waiting for inactive GPU simulation
GPGPU-Sim API: Stream Manager State
GPGPU-Sim: detected inactive GPU simulation thread
256 96

GPGPU-Sim PTX: cudaLaunch for 0x0x403b20 (mode=performance simulation) on stream 0
GPGPU-Sim PTX: pushing kernel '_Z24solve_nqueen_cuda_kerneliiPjS_S_S_i' to stream 0, gridDim= (256,1,1) blockDim = (96,1,1) 
kernel '_Z24solve_nqueen_cuda_kerneliiPjS_S_S_i' transfer to GPU hardware scheduler
GPGPU-Sim uArch: Shader 1 bind to kernel 1 '_Z24solve_nqueen_cuda_kerneliiPjS_S_S_i'
GPGPU-Sim uArch: CTA/core = 3, limited by: shmem
GPGPU-Sim uArch: core:  1, cta: 0 initialized @(1,0)
GPGPU-Sim uArch: Shader 2 bind to kernel 1 '_Z24solve_nqueen_cuda_kerneliiPjS_S_S_i'
GPGPU-Sim uArch: core:  2, cta: 0 initialized @(1,0)
GPGPU-Sim uArch: Shader 3 bind to kernel 1 '_Z24solve_nqueen_cuda_kerneliiPjS_S_S_i'
GPGPU-Sim uArch: core:  3, cta: 0 initialized @(1,0)
GPGPU-Sim uArch: Shader 4 bind to kernel 1 '_Z24solve_nqueen_cuda_kerneliiPjS_S_S_i'
GPGPU-Sim uArch: core:  4, cta: 0 initialized @(1,0)
GPGPU-Sim uArch: Shader 5 bind to kernel 1 '_Z24solve_nqueen_cuda_kerneliiPjS_S_S_i'
GPGPU-Sim uArch: core:  5, cta: 0 initialized @(1,0)
GPGPU-Sim uArch: Shader 6 bind to kernel 1 '_Z24solve_nqueen_cuda_kerneliiPjS_S_S_i'
GPGPU-Sim uArch: core:  6, cta: 0 initialized @(1,0)
GPGPU-Sim uArch: Shader 7 bind to kernel 1 '_Z24solve_nqueen_cuda_kerneliiPjS_S_S_i'
GPGPU-Sim uArch: core:  7, cta: 0 initialized @(1,0)
GPGPU-Sim uArch: Shader 8 bind to kernel 1 '_Z24solve_nqueen_cuda_kerneliiPjS_S_S_i'
GPGPU-Sim uArch: core:  8, cta: 0 initialized @(1,0)
GPGPU-Sim uArch: Shader 9 bind to kernel 1 '_Z24solve_nqueen_cuda_kerneliiPjS_S_S_i'
GPGPU-Sim uArch: core:  9, cta: 0 initialized @(1,0)
GPGPU-Sim uArch: Shader 10 bind to kernel 1 '_Z24solve_nqueen_cuda_kerneliiPjS_S_S_i'
GPGPU-Sim uArch: core: 10, cta: 0 initialized @(1,0)
GPGPU-Sim uArch: Shader 11 bind to kernel 1 '_Z24solve_nqueen_cuda_kerneliiPjS_S_S_i'
GPGPU-Sim uArch: core: 11, cta: 0 initialized @(1,0)
GPGPU-Sim uArch: Shader 12 bind to kernel 1 '_Z24solve_nqueen_cuda_kerneliiPjS_S_S_i'
GPGPU-Sim uArch: core: 12, cta: 0 initialized @(1,0)
GPGPU-Sim uArch: Shader 13 bind to kernel 1 '_Z24solve_nqueen_cuda_kerneliiPjS_S_S_i'
GPGPU-Sim uArch: core: 13, cta: 0 initialized @(1,0)
GPGPU-Sim uArch: Shader 14 bind to kernel 1 '_Z24solve_nqueen_cuda_kerneliiPjS_S_S_i'
GPGPU-Sim uArch: core: 14, cta: 0 initialized @(1,0)
GPGPU-Sim uArch: Shader 0 bind to kernel 1 '_Z24solve_nqueen_cuda_kerneliiPjS_S_S_i'
GPGPU-Sim uArch: core:  0, cta: 0 initialized @(1,0)
GPGPU-Sim uArch: core:  1, cta: 1 initialized @(2,0)
GPGPU-Sim uArch: core:  2, cta: 1 initialized @(2,0)
GPGPU-Sim uArch: core:  3, cta: 1 initialized @(2,0)
GPGPU-Sim uArch: core:  4, cta: 1 initialized @(2,0)
GPGPU-Sim uArch: core:  5, cta: 1 initialized @(2,0)
GPGPU-Sim uArch: core:  6, cta: 1 initialized @(2,0)
GPGPU-Sim uArch: core:  7, cta: 1 initialized @(2,0)
GPGPU-Sim uArch: core:  8, cta: 1 initialized @(2,0)
GPGPU-Sim uArch: core:  9, cta: 1 initialized @(2,0)
GPGPU-Sim uArch: core: 10, cta: 1 initialized @(2,0)
GPGPU-Sim uArch: core: 11, cta: 1 initialized @(2,0)
GPGPU-Sim uArch: core: 12, cta: 1 initialized @(2,0)
GPGPU-Sim uArch: core: 13, cta: 1 initialized @(2,0)
GPGPU-Sim uArch: core: 14, cta: 1 initialized @(2,0)
GPGPU-Sim uArch: core:  0, cta: 1 initialized @(2,0)
GPGPU-Sim uArch: core:  1, cta: 2 initialized @(3,0)
GPGPU-Sim uArch: core:  2, cta: 2 initialized @(3,0)
GPGPU-Sim uArch: core:  3, cta: 2 initialized @(3,0)
GPGPU-Sim uArch: core:  4, cta: 2 initialized @(3,0)
GPGPU-Sim uArch: core:  5, cta: 2 initialized @(3,0)
GPGPU-Sim uArch: core:  6, cta: 2 initialized @(3,0)
GPGPU-Sim uArch: core:  7, cta: 2 initialized @(3,0)
GPGPU-Sim uArch: core:  8, cta: 2 initialized @(3,0)
GPGPU-Sim uArch: core:  9, cta: 2 initialized @(3,0)
GPGPU-Sim uArch: core: 10, cta: 2 initialized @(3,0)
GPGPU-Sim uArch: core: 11, cta: 2 initialized @(3,0)
GPGPU-Sim uArch: core: 12, cta: 2 initialized @(3,0)
GPGPU-Sim uArch: core: 13, cta: 2 initialized @(3,0)
GPGPU-Sim uArch: core: 14, cta: 2 initialized @(3,0)
GPGPU-Sim uArch: core:  0, cta: 2 initialized @(3,0)
GPGPU-Sim uArch: cycles simulated: 500  inst.: 38880 (ipc=77.8) sim_rate=19440 (inst/sec) elapsed = 0:0:00:02 / Fri May 15 01:26:56 2015
GPGPU-Sim uArch: cycles simulated: 1000  inst.: 85759 (ipc=85.8) sim_rate=21439 (inst/sec) elapsed = 0:0:00:04 / Fri May 15 01:26:58 2015
GPGPU-Sim PTX: 100000 instructions simulated : ctaid=(1,0,0) tid=(17,0,0)
GPGPU-Sim uArch: cycles simulated: 1500  inst.: 131175 (ipc=87.5) sim_rate=21862 (inst/sec) elapsed = 0:0:00:06 / Fri May 15 01:27:00 2015
GPGPU-Sim PTX: 200000 instructions simulated : ctaid=(24,0,0) tid=(91,0,0)
GPGPU-Sim uArch: cycles simulated: 2000  inst.: 196405 (ipc=98.2) sim_rate=24550 (inst/sec) elapsed = 0:0:00:08 / Fri May 15 01:27:02 2015
GPGPU-Sim uArch: Shader 4 finished CTA #0 (2471,0), 2 CTAs running
GPGPU-Sim uArch: core:  4, cta: 0 initialized @(2472,0)
GPGPU-Sim uArch: Shader 1 finished CTA #2 (2488,0), 2 CTAs running
GPGPU-Sim uArch: core:  1, cta: 2 initialized @(2489,0)
GPGPU-Sim uArch: Shader 5 finished CTA #0 (2490,0), 2 CTAs running
GPGPU-Sim uArch: core:  5, cta: 0 initialized @(2491,0)
GPGPU-Sim uArch: Shader 0 finished CTA #1 (2492,0), 2 CTAs running
GPGPU-Sim uArch: core:  0, cta: 1 initialized @(2493,0)
GPGPU-Sim uArch: Shader 4 finished CTA #1 (2494,0), 2 CTAs running
GPGPU-Sim uArch: core:  4, cta: 1 initialized @(2495,0)
GPGPU-Sim uArch: Shader 3 finished CTA #0 (2496,0), 2 CTAs running
GPGPU-Sim uArch: core:  3, cta: 0 initialized @(2497,0)
GPGPU-Sim uArch: Shader 5 finished CTA #1 (2499,0), 2 CTAs running
GPGPU-Sim uArch: core:  5, cta: 1 initialized @(2500,0)
GPGPU-Sim uArch: cycles simulated: 2500  inst.: 206883 (ipc=82.8) sim_rate=22987 (inst/sec) elapsed = 0:0:00:09 / Fri May 15 01:27:03 2015
GPGPU-Sim uArch: Shader 1 finished CTA #1 (2500,0), 2 CTAs running
GPGPU-Sim uArch: core:  1, cta: 1 initialized @(2501,0)
GPGPU-Sim uArch: Shader 2 finished CTA #0 (2502,0), 2 CTAs running
GPGPU-Sim uArch: core:  2, cta: 0 initialized @(2503,0)
GPGPU-Sim uArch: Shader 4 finished CTA #2 (2504,0), 2 CTAs running
GPGPU-Sim uArch: core:  4, cta: 2 initialized @(2505,0)
GPGPU-Sim uArch: Shader 3 finished CTA #1 (2506,0), 2 CTAs running
GPGPU-Sim uArch: core:  3, cta: 1 initialized @(2507,0)
GPGPU-Sim uArch: Shader 6 finished CTA #0 (2508,0), 2 CTAs running
GPGPU-Sim uArch: core:  6, cta: 0 initialized @(2509,0)
GPGPU-Sim uArch: Shader 7 finished CTA #0 (2510,0), 2 CTAs running
GPGPU-Sim uArch: core:  7, cta: 0 initialized @(2511,0)
GPGPU-Sim uArch: Shader 8 finished CTA #0 (2512,0), 2 CTAs running
GPGPU-Sim uArch: core:  8, cta: 0 initialized @(2513,0)
GPGPU-Sim uArch: Shader 2 finished CTA #1 (2514,0), 2 CTAs running
GPGPU-Sim uArch: core:  2, cta: 1 initialized @(2515,0)
GPGPU-Sim uArch: Shader 6 finished CTA #1 (2517,0), 2 CTAs running
GPGPU-Sim uArch: core:  6, cta: 1 initialized @(2518,0)
GPGPU-Sim uArch: Shader 7 finished CTA #1 (2519,0), 2 CTAs running
GPGPU-Sim uArch: core:  7, cta: 1 initialized @(2520,0)
GPGPU-Sim uArch: Shader 8 finished CTA #1 (2521,0), 2 CTAs running
GPGPU-Sim uArch: core:  8, cta: 1 initialized @(2522,0)
GPGPU-Sim uArch: Shader 9 finished CTA #0 (2522,0), 2 CTAs running
GPGPU-Sim uArch: core:  9, cta: 0 initialized @(2523,0)
GPGPU-Sim uArch: Shader 10 finished CTA #0 (2524,0), 2 CTAs running
GPGPU-Sim uArch: core: 10, cta: 0 initialized @(2525,0)
GPGPU-Sim uArch: Shader 11 finished CTA #0 (2526,0), 2 CTAs running
GPGPU-Sim uArch: core: 11, cta: 0 initialized @(2527,0)
GPGPU-Sim uArch: Shader 12 finished CTA #0 (2528,0), 2 CTAs running
GPGPU-Sim uArch: core: 12, cta: 0 initialized @(2529,0)
GPGPU-Sim uArch: Shader 13 finished CTA #0 (2530,0), 2 CTAs running
GPGPU-Sim uArch: core: 13, cta: 0 initialized @(2531,0)
GPGPU-Sim uArch: Shader 2 finished CTA #2 (2532,0), 2 CTAs running
GPGPU-Sim uArch: core:  2, cta: 2 initialized @(2533,0)
GPGPU-Sim uArch: Shader 6 finished CTA #2 (2534,0), 2 CTAs running
GPGPU-Sim uArch: core:  6, cta: 2 initialized @(2535,0)
GPGPU-Sim uArch: Shader 7 finished CTA #2 (2536,0), 2 CTAs running
GPGPU-Sim uArch: core:  7, cta: 2 initialized @(2537,0)
GPGPU-Sim uArch: Shader 8 finished CTA #2 (2538,0), 2 CTAs running
GPGPU-Sim uArch: core:  8, cta: 2 initialized @(2539,0)
GPGPU-Sim uArch: Shader 0 finished CTA #0 (2540,0), 2 CTAs running
GPGPU-Sim uArch: core:  0, cta: 0 initialized @(2541,0)
GPGPU-Sim uArch: Shader 9 finished CTA #1 (2542,0), 2 CTAs running
GPGPU-Sim uArch: core:  9, cta: 1 initialized @(2543,0)
GPGPU-Sim uArch: Shader 10 finished CTA #1 (2544,0), 2 CTAs running
GPGPU-Sim uArch: core: 10, cta: 1 initialized @(2545,0)
GPGPU-Sim uArch: Shader 11 finished CTA #1 (2546,0), 2 CTAs running
GPGPU-Sim uArch: core: 11, cta: 1 initialized @(2547,0)
GPGPU-Sim uArch: Shader 12 finished CTA #1 (2548,0), 2 CTAs running
GPGPU-Sim uArch: core: 12, cta: 1 initialized @(2549,0)
GPGPU-Sim uArch: Shader 13 finished CTA #1 (2550,0), 2 CTAs running
GPGPU-Sim uArch: core: 13, cta: 1 initialized @(2551,0)
GPGPU-Sim uArch: Shader 14 finished CTA #0 (2552,0), 2 CTAs running
GPGPU-Sim uArch: core: 14, cta: 0 initialized @(2553,0)
GPGPU-Sim uArch: Shader 9 finished CTA #2 (2554,0), 2 CTAs running
GPGPU-Sim uArch: core:  9, cta: 2 initialized @(2555,0)
GPGPU-Sim uArch: Shader 10 finished CTA #2 (2556,0), 2 CTAs running
GPGPU-Sim uArch: core: 10, cta: 2 initialized @(2557,0)
GPGPU-Sim uArch: Shader 11 finished CTA #2 (2558,0), 2 CTAs running
GPGPU-Sim uArch: core: 11, cta: 2 initialized @(2559,0)
GPGPU-Sim uArch: Shader 12 finished CTA #2 (2560,0), 2 CTAs running
GPGPU-Sim uArch: core: 12, cta: 2 initialized @(2561,0)
GPGPU-Sim uArch: Shader 13 finished CTA #2 (2562,0), 2 CTAs running
GPGPU-Sim uArch: core: 13, cta: 2 initialized @(2563,0)
GPGPU-Sim uArch: Shader 14 finished CTA #1 (2564,0), 2 CTAs running
GPGPU-Sim uArch: core: 14, cta: 1 initialized @(2565,0)
GPGPU-Sim uArch: Shader 14 finished CTA #2 (2569,0), 2 CTAs running
GPGPU-Sim uArch: core: 14, cta: 2 initialized @(2570,0)
GPGPU-Sim uArch: Shader 0 finished CTA #2 (2601,0), 2 CTAs running
GPGPU-Sim uArch: core:  0, cta: 2 initialized @(2602,0)
GPGPU-Sim uArch: Shader 5 finished CTA #2 (2603,0), 2 CTAs running
GPGPU-Sim uArch: core:  5, cta: 2 initialized @(2604,0)
GPGPU-Sim uArch: Shader 3 finished CTA #2 (2607,0), 2 CTAs running
GPGPU-Sim uArch: core:  3, cta: 2 initialized @(2608,0)
GPGPU-Sim PTX: 300000 instructions simulated : ctaid=(52,0,0) tid=(92,0,0)
GPGPU-Sim PTX: 400000 instructions simulated : ctaid=(54,0,0) tid=(28,0,0)
GPGPU-Sim uArch: cycles simulated: 3000  inst.: 394879 (ipc=131.6) sim_rate=32906 (inst/sec) elapsed = 0:0:00:12 / Fri May 15 01:27:06 2015
GPGPU-Sim uArch: Shader 3 finished CTA #0 (3059,0), 2 CTAs running
GPGPU-Sim uArch: core:  3, cta: 0 initialized @(3060,0)
GPGPU-Sim uArch: Shader 5 finished CTA #0 (3062,0), 2 CTAs running
GPGPU-Sim uArch: core:  5, cta: 0 initialized @(3063,0)
GPGPU-Sim uArch: Shader 0 finished CTA #1 (3067,0), 2 CTAs running
GPGPU-Sim uArch: core:  0, cta: 1 initialized @(3068,0)
GPGPU-Sim uArch: Shader 1 finished CTA #2 (3068,0), 2 CTAs running
GPGPU-Sim uArch: core:  1, cta: 2 initialized @(3069,0)
GPGPU-Sim uArch: Shader 1 finished CTA #1 (3079,0), 2 CTAs running
GPGPU-Sim uArch: core:  1, cta: 1 initialized @(3080,0)
GPGPU-Sim uArch: Shader 3 finished CTA #1 (3096,0), 2 CTAs running
GPGPU-Sim uArch: core:  3, cta: 1 initialized @(3097,0)
GPGPU-Sim uArch: Shader 5 finished CTA #1 (3106,0), 2 CTAs running
GPGPU-Sim uArch: core:  5, cta: 1 initialized @(3107,0)
GPGPU-Sim uArch: Shader 4 finished CTA #0 (3113,0), 2 CTAs running
GPGPU-Sim uArch: core:  4, cta: 0 initialized @(3114,0)
GPGPU-Sim uArch: Shader 4 finished CTA #1 (3117,0), 2 CTAs running
GPGPU-Sim uArch: core:  4, cta: 1 initialized @(3118,0)
GPGPU-Sim uArch: Shader 6 finished CTA #0 (3136,0), 2 CTAs running
GPGPU-Sim uArch: core:  6, cta: 0 initialized @(3137,0)
GPGPU-Sim uArch: Shader 7 finished CTA #0 (3139,0), 2 CTAs running
GPGPU-Sim uArch: core:  7, cta: 0 initialized @(3140,0)
GPGPU-Sim uArch: Shader 8 finished CTA #0 (3142,0), 2 CTAs running
GPGPU-Sim uArch: core:  8, cta: 0 initialized @(3143,0)
GPGPU-Sim uArch: Shader 6 finished CTA #1 (3145,0), 2 CTAs running
GPGPU-Sim uArch: core:  6, cta: 1 initialized @(3146,0)
GPGPU-Sim uArch: Shader 7 finished CTA #1 (3148,0), 2 CTAs running
GPGPU-Sim uArch: core:  7, cta: 1 initialized @(3149,0)
GPGPU-Sim uArch: Shader 8 finished CTA #1 (3151,0), 2 CTAs running
GPGPU-Sim uArch: core:  8, cta: 1 initialized @(3152,0)
GPGPU-Sim uArch: Shader 2 finished CTA #0 (3154,0), 2 CTAs running
GPGPU-Sim uArch: core:  2, cta: 0 initialized @(3155,0)
GPGPU-Sim uArch: Shader 2 finished CTA #1 (3163,0), 2 CTAs running
GPGPU-Sim uArch: core:  2, cta: 1 initialized @(3164,0)
GPGPU-Sim uArch: Shader 4 finished CTA #2 (3164,0), 2 CTAs running
GPGPU-Sim uArch: core:  4, cta: 2 initialized @(3165,0)
GPGPU-Sim uArch: Shader 9 finished CTA #0 (3169,0), 2 CTAs running
GPGPU-Sim uArch: core:  9, cta: 0 initialized @(3170,0)
GPGPU-Sim uArch: Shader 0 finished CTA #0 (3247,0), 2 CTAs running
GPGPU-Sim uArch: core:  0, cta: 0 initialized @(3248,0)
GPGPU-Sim uArch: Shader 13 finished CTA #0 (3264,0), 2 CTAs running
GPGPU-Sim uArch: core: 13, cta: 0 initialized @(3265,0)
GPGPU-Sim uArch: Shader 2 finished CTA #2 (3266,0), 2 CTAs running
GPGPU-Sim uArch: core:  2, cta: 2 initialized @(3267,0)
GPGPU-Sim uArch: Shader 9 finished CTA #1 (3268,0), 2 CTAs running
GPGPU-Sim uArch: core:  9, cta: 1 initialized @(3269,0)
GPGPU-Sim uArch: Shader 10 finished CTA #1 (3270,0), 2 CTAs running
GPGPU-Sim uArch: core: 10, cta: 1 initialized @(3271,0)
GPGPU-Sim uArch: Shader 11 finished CTA #1 (3272,0), 2 CTAs running
GPGPU-Sim uArch: core: 11, cta: 1 initialized @(3273,0)
GPGPU-Sim uArch: Shader 12 finished CTA #1 (3274,0), 2 CTAs running
GPGPU-Sim uArch: core: 12, cta: 1 initialized @(3275,0)
GPGPU-Sim uArch: Shader 13 finished CTA #1 (3276,0), 2 CTAs running
GPGPU-Sim uArch: core: 13, cta: 1 initialized @(3277,0)
GPGPU-Sim uArch: Shader 14 finished CTA #1 (3278,0), 2 CTAs running
GPGPU-Sim uArch: core: 14, cta: 1 initialized @(3279,0)
GPGPU-Sim uArch: Shader 6 finished CTA #2 (3282,0), 2 CTAs running
GPGPU-Sim uArch: Shader 14 finished CTA #0 (3282,0), 2 CTAs running
GPGPU-Sim uArch: core:  6, cta: 2 initialized @(3283,0)
GPGPU-Sim uArch: core: 14, cta: 0 initialized @(3283,0)
GPGPU-Sim uArch: Shader 7 finished CTA #2 (3285,0), 2 CTAs running
GPGPU-Sim uArch: core:  7, cta: 2 initialized @(3286,0)
GPGPU-Sim uArch: Shader 8 finished CTA #2 (3286,0), 2 CTAs running
GPGPU-Sim uArch: core:  8, cta: 2 initialized @(3287,0)
GPGPU-Sim uArch: Shader 9 finished CTA #2 (3289,0), 2 CTAs running
GPGPU-Sim uArch: core:  9, cta: 2 initialized @(3290,0)
GPGPU-Sim uArch: Shader 10 finished CTA #2 (3290,0), 2 CTAs running
GPGPU-Sim uArch: core: 10, cta: 2 initialized @(3291,0)
GPGPU-Sim uArch: Shader 10 finished CTA #0 (3294,0), 2 CTAs running
GPGPU-Sim uArch: Shader 11 finished CTA #2 (3294,0), 2 CTAs running
GPGPU-Sim uArch: core: 11, cta: 2 initialized @(3295,0)
GPGPU-Sim uArch: core: 10, cta: 0 initialized @(3295,0)
GPGPU-Sim uArch: Shader 12 finished CTA #2 (3296,0), 2 CTAs running
GPGPU-Sim uArch: core: 12, cta: 2 initialized @(3297,0)
GPGPU-Sim uArch: Shader 13 finished CTA #2 (3299,0), 2 CTAs running
GPGPU-Sim uArch: core: 13, cta: 2 initialized @(3300,0)
GPGPU-Sim uArch: Shader 11 finished CTA #0 (3300,0), 2 CTAs running
GPGPU-Sim uArch: core: 11, cta: 0 initialized @(3301,0)
GPGPU-Sim uArch: Shader 14 finished CTA #2 (3302,0), 2 CTAs running
GPGPU-Sim uArch: core: 14, cta: 2 initialized @(3303,0)
GPGPU-Sim uArch: Shader 0 finished CTA #2 (3304,0), 2 CTAs running
GPGPU-Sim uArch: core:  0, cta: 2 initialized @(3305,0)
GPGPU-Sim uArch: Shader 5 finished CTA #2 (3308,0), 2 CTAs running
GPGPU-Sim uArch: Shader 12 finished CTA #0 (3308,0), 2 CTAs running
GPGPU-Sim uArch: core:  5, cta: 2 initialized @(3309,0)
GPGPU-Sim uArch: core: 12, cta: 0 initialized @(3309,0)
GPGPU-Sim uArch: Shader 3 finished CTA #2 (3312,0), 2 CTAs running
GPGPU-Sim uArch: core:  3, cta: 2 initialized @(3313,0)
GPGPU-Sim PTX: 500000 instructions simulated : ctaid=(127,0,0) tid=(60,0,0)
GPGPU-Sim uArch: cycles simulated: 3500  inst.: 540044 (ipc=154.3) sim_rate=36002 (inst/sec) elapsed = 0:0:00:15 / Fri May 15 01:27:09 2015
GPGPU-Sim uArch: Shader 5 finished CTA #0 (3636,0), 2 CTAs running
GPGPU-Sim uArch: core:  5, cta: 0 initialized @(3637,0)
GPGPU-Sim PTX: 600000 instructions simulated : ctaid=(112,0,0) tid=(15,0,0)
GPGPU-Sim uArch: Shader 5 finished CTA #1 (3640,0), 2 CTAs running
GPGPU-Sim uArch: core:  5, cta: 1 initialized @(3641,0)
GPGPU-Sim uArch: Shader 0 finished CTA #1 (3663,0), 2 CTAs running
GPGPU-Sim uArch: core:  0, cta: 1 initialized @(3664,0)
GPGPU-Sim uArch: Shader 3 finished CTA #0 (3669,0), 2 CTAs running
GPGPU-Sim uArch: core:  3, cta: 0 initialized @(3670,0)
GPGPU-Sim uArch: Shader 3 finished CTA #1 (3677,0), 2 CTAs running
GPGPU-Sim uArch: core:  3, cta: 1 initialized @(3678,0)
GPGPU-Sim uArch: Shader 1 finished CTA #2 (3735,0), 2 CTAs running
GPGPU-Sim uArch: core:  1, cta: 2 initialized @(3736,0)
GPGPU-Sim uArch: Shader 1 finished CTA #1 (3747,0), 2 CTAs running
GPGPU-Sim uArch: core:  1, cta: 1 initialized @(3748,0)
GPGPU-Sim uArch: Shader 6 finished CTA #1 (3844,0), 2 CTAs running
GPGPU-Sim uArch: core:  6, cta: 1 initialized @(3845,0)
GPGPU-Sim uArch: Shader 7 finished CTA #0 (3861,0), 2 CTAs running
GPGPU-Sim uArch: core:  7, cta: 0 initialized @(3862,0)
GPGPU-Sim uArch: Shader 8 finished CTA #0 (3863,0), 2 CTAs running
GPGPU-Sim uArch: core:  8, cta: 0 initialized @(3864,0)
GPGPU-Sim uArch: Shader 2 finished CTA #0 (3865,0), 2 CTAs running
GPGPU-Sim uArch: core:  2, cta: 0 initialized @(3866,0)
GPGPU-Sim uArch: Shader 7 finished CTA #1 (3867,0), 2 CTAs running
GPGPU-Sim uArch: core:  7, cta: 1 initialized @(3868,0)
GPGPU-Sim uArch: Shader 2 finished CTA #1 (3869,0), 2 CTAs running
GPGPU-Sim uArch: core:  2, cta: 1 initialized @(3870,0)
GPGPU-Sim uArch: Shader 4 finished CTA #0 (3871,0), 2 CTAs running
GPGPU-Sim uArch: core:  4, cta: 0 initialized @(3872,0)
GPGPU-Sim uArch: Shader 8 finished CTA #1 (3873,0), 2 CTAs running
GPGPU-Sim uArch: core:  8, cta: 1 initialized @(3874,0)
GPGPU-Sim uArch: Shader 4 finished CTA #1 (3875,0), 2 CTAs running
GPGPU-Sim uArch: core:  4, cta: 1 initialized @(3876,0)
GPGPU-Sim uArch: Shader 4 finished CTA #2 (3879,0), 2 CTAs running
GPGPU-Sim uArch: Shader 9 finished CTA #0 (3879,0), 2 CTAs running
GPGPU-Sim uArch: core:  9, cta: 0 initialized @(3880,0)
GPGPU-Sim uArch: core:  4, cta: 2 initialized @(3880,0)
GPGPU-Sim uArch: Shader 6 finished CTA #0 (3881,0), 2 CTAs running
GPGPU-Sim uArch: core:  6, cta: 0 initialized @(3882,0)
GPGPU-Sim uArch: Shader 0 finished CTA #0 (3883,0), 2 CTAs running
GPGPU-Sim uArch: core:  0, cta: 0 initialized @(3884,0)
GPGPU-Sim uArch: Shader 9 finished CTA #1 (3888,0), 2 CTAs running
GPGPU-Sim uArch: core:  9, cta: 1 initialized @(3889,0)
GPGPU-Sim uArch: Shader 9 finished CTA #2 (3892,0), 2 CTAs running
GPGPU-Sim uArch: core:  9, cta: 2 initialized @(3893,0)
GPGPU-Sim uArch: Shader 6 finished CTA #2 (3902,0), 2 CTAs running
GPGPU-Sim uArch: core:  6, cta: 2 initialized @(3903,0)
GPGPU-Sim uArch: Shader 7 finished CTA #2 (3904,0), 2 CTAs running
GPGPU-Sim uArch: core:  7, cta: 2 initialized @(3905,0)
GPGPU-Sim uArch: Shader 8 finished CTA #2 (3907,0), 2 CTAs running
GPGPU-Sim uArch: core:  8, cta: 2 initialized @(3908,0)
GPGPU-Sim uArch: Shader 2 finished CTA #2 (3910,0), 2 CTAs running
GPGPU-Sim uArch: core:  2, cta: 2 initialized @(3911,0)
GPGPU-Sim uArch: Shader 0 finished CTA #2 (3976,0), 2 CTAs running
GPGPU-Sim uArch: core:  0, cta: 2 initialized @(3977,0)
GPGPU-Sim uArch: Shader 13 finished CTA #0 (3984,0), 2 CTAs running
GPGPU-Sim uArch: core: 13, cta: 0 initialized @(3985,0)
GPGPU-Sim uArch: Shader 13 finished CTA #1 (3988,0), 2 CTAs running
GPGPU-Sim uArch: Shader 13 finished CTA #2 (3988,0), 1 CTAs running
GPGPU-Sim uArch: core: 13, cta: 1 initialized @(3989,0)
GPGPU-Sim uArch: core: 13, cta: 2 initialized @(3990,0)
GPGPU-Sim uArch: Shader 10 finished CTA #1 (3990,0), 2 CTAs running
GPGPU-Sim uArch: core: 10, cta: 1 initialized @(3991,0)
GPGPU-Sim uArch: Shader 5 finished CTA #2 (3991,0), 2 CTAs running
GPGPU-Sim uArch: core:  5, cta: 2 initialized @(3992,0)
GPGPU-Sim uArch: Shader 11 finished CTA #1 (3992,0), 2 CTAs running
GPGPU-Sim uArch: core: 11, cta: 1 initialized @(3993,0)
GPGPU-Sim uArch: Shader 12 finished CTA #1 (3994,0), 2 CTAs running
GPGPU-Sim uArch: core: 12, cta: 1 initialized @(3995,0)
GPGPU-Sim uArch: Shader 14 finished CTA #1 (3996,0), 2 CTAs running
GPGPU-Sim uArch: core: 14, cta: 1 initialized @(3997,0)
GPGPU-Sim uArch: Shader 10 finished CTA #2 (3999,0), 2 CTAs running
GPGPU-Sim uArch: core: 10, cta: 2 initialized @(4000,0)
GPGPU-Sim uArch: cycles simulated: 4000  inst.: 667777 (ipc=166.9) sim_rate=37098 (inst/sec) elapsed = 0:0:00:18 / Fri May 15 01:27:12 2015
GPGPU-Sim uArch: Shader 11 finished CTA #2 (4001,0), 2 CTAs running
GPGPU-Sim uArch: core: 11, cta: 2 initialized @(4002,0)
GPGPU-Sim uArch: Shader 12 finished CTA #2 (4003,0), 2 CTAs running
GPGPU-Sim uArch: core: 12, cta: 2 initialized @(4004,0)
GPGPU-Sim uArch: Shader 14 finished CTA #0 (4005,0), 2 CTAs running
GPGPU-Sim uArch: core: 14, cta: 0 initialized @(4006,0)
GPGPU-Sim uArch: Shader 10 finished CTA #0 (4007,0), 2 CTAs running
GPGPU-Sim uArch: core: 10, cta: 0 initialized @(4008,0)
GPGPU-Sim uArch: Shader 11 finished CTA #0 (4009,0), 2 CTAs running
GPGPU-Sim uArch: core: 11, cta: 0 initialized @(4010,0)
GPGPU-Sim PTX: 700000 instructions simulated : ctaid=(141,0,0) tid=(42,0,0)
GPGPU-Sim uArch: Shader 3 finished CTA #2 (4051,0), 2 CTAs running
GPGPU-Sim uArch: core:  3, cta: 2 initialized @(4052,0)
GPGPU-Sim uArch: Shader 12 finished CTA #0 (4066,0), 2 CTAs running
GPGPU-Sim uArch: core: 12, cta: 0 initialized @(4067,0)
GPGPU-Sim uArch: Shader 14 finished CTA #2 (4069,0), 2 CTAs running
GPGPU-Sim uArch: core: 14, cta: 2 initialized @(4070,0)
GPGPU-Sim uArch: Shader 5 finished CTA #0 (4231,0), 2 CTAs running
GPGPU-Sim uArch: core:  5, cta: 0 initialized @(4232,0)
GPGPU-Sim uArch: Shader 0 finished CTA #1 (4239,0), 2 CTAs running
GPGPU-Sim uArch: core:  0, cta: 1 initialized @(4240,0)
GPGPU-Sim uArch: Shader 5 finished CTA #1 (4242,0), 2 CTAs running
GPGPU-Sim uArch: core:  5, cta: 1 initialized @(4243,0)
GPGPU-Sim uArch: Shader 3 finished CTA #0 (4284,0), 2 CTAs running
GPGPU-Sim uArch: core:  3, cta: 0 initialized @(4285,0)
GPGPU-Sim uArch: Shader 3 finished CTA #1 (4288,0), 2 CTAs running
GPGPU-Sim uArch: core:  3, cta: 1 initialized @(4289,0)
GPGPU-Sim PTX: 800000 instructions simulated : ctaid=(147,0,0) tid=(40,0,0)
GPGPU-Sim uArch: Shader 1 finished CTA #2 (4402,0), 2 CTAs running
GPGPU-Sim uArch: core:  1, cta: 2 initialized @(4403,0)
GPGPU-Sim uArch: Shader 1 finished CTA #1 (4422,0), 2 CTAs running
GPGPU-Sim uArch: core:  1, cta: 1 initialized @(4423,0)
GPGPU-Sim uArch: Shader 0 finished CTA #0 (4440,0), 2 CTAs running
GPGPU-Sim uArch: core:  0, cta: 0 initialized @(4441,0)
GPGPU-Sim uArch: cycles simulated: 4500  inst.: 835766 (ipc=185.7) sim_rate=39798 (inst/sec) elapsed = 0:0:00:21 / Fri May 15 01:27:15 2015
GPGPU-Sim uArch: Shader 6 finished CTA #1 (4510,0), 2 CTAs running
GPGPU-Sim uArch: core:  6, cta: 1 initialized @(4511,0)
GPGPU-Sim uArch: Shader 6 finished CTA #0 (4514,0), 2 CTAs running
GPGPU-Sim uArch: core:  6, cta: 0 initialized @(4515,0)
GPGPU-Sim uArch: Shader 6 finished CTA #2 (4518,0), 2 CTAs running
GPGPU-Sim uArch: core:  6, cta: 2 initialized @(4519,0)
GPGPU-Sim uArch: Shader 7 finished CTA #0 (4520,0), 2 CTAs running
GPGPU-Sim uArch: core:  7, cta: 0 initialized @(4521,0)
GPGPU-Sim uArch: Shader 2 finished CTA #0 (4524,0), 2 CTAs running
GPGPU-Sim uArch: core:  2, cta: 0 initialized @(4525,0)
GPGPU-Sim uArch: Shader 7 finished CTA #1 (4529,0), 2 CTAs running
GPGPU-Sim uArch: core:  7, cta: 1 initialized @(4530,0)
GPGPU-Sim uArch: Shader 8 finished CTA #0 (4530,0), 2 CTAs running
GPGPU-Sim uArch: core:  8, cta: 0 initialized @(4531,0)
GPGPU-Sim uArch: Shader 2 finished CTA #1 (4533,0), 2 CTAs running
GPGPU-Sim uArch: core:  2, cta: 1 initialized @(4534,0)
GPGPU-Sim uArch: Shader 4 finished CTA #0 (4536,0), 2 CTAs running
GPGPU-Sim uArch: core:  4, cta: 0 initialized @(4537,0)
GPGPU-Sim uArch: Shader 7 finished CTA #2 (4539,0), 2 CTAs running
GPGPU-Sim uArch: core:  7, cta: 2 initialized @(4540,0)
GPGPU-Sim uArch: Shader 8 finished CTA #1 (4542,0), 2 CTAs running
GPGPU-Sim uArch: core:  8, cta: 1 initialized @(4543,0)
GPGPU-Sim uArch: Shader 9 finished CTA #0 (4545,0), 2 CTAs running
GPGPU-Sim uArch: core:  9, cta: 0 initialized @(4546,0)
GPGPU-Sim uArch: Shader 2 finished CTA #2 (4548,0), 2 CTAs running
GPGPU-Sim uArch: core:  2, cta: 2 initialized @(4549,0)
GPGPU-Sim uArch: Shader 4 finished CTA #1 (4553,0), 2 CTAs running
GPGPU-Sim uArch: core:  4, cta: 1 initialized @(4554,0)
GPGPU-Sim uArch: Shader 8 finished CTA #2 (4554,0), 2 CTAs running
GPGPU-Sim uArch: core:  8, cta: 2 initialized @(4555,0)
GPGPU-Sim uArch: Shader 9 finished CTA #1 (4557,0), 2 CTAs running
GPGPU-Sim uArch: core:  9, cta: 1 initialized @(4558,0)
GPGPU-Sim uArch: Shader 4 finished CTA #2 (4560,0), 2 CTAs running
GPGPU-Sim uArch: core:  4, cta: 2 initialized @(4561,0)
GPGPU-Sim uArch: Shader 9 finished CTA #2 (4563,0), 2 CTAs running
GPGPU-Sim uArch: core:  9, cta: 2 initialized @(4564,0)
GPGPU-Sim uArch: Shader 0 finished CTA #2 (4621,0), 2 CTAs running
GPGPU-Sim uArch: core:  0, cta: 2 initialized @(4622,0)
GPGPU-Sim PTX: 900000 instructions simulated : ctaid=(189,0,0) tid=(9,0,0)
GPGPU-Sim uArch: Shader 13 finished CTA #0 (4753,0), 2 CTAs running
GPGPU-Sim uArch: core: 13, cta: 0 initialized @(4754,0)
GPGPU-Sim uArch: Shader 11 finished CTA #1 (4769,0), 2 CTAs running
GPGPU-Sim uArch: core: 11, cta: 1 initialized @(4770,0)
GPGPU-Sim uArch: Shader 12 finished CTA #2 (4771,0), 2 CTAs running
GPGPU-Sim uArch: core: 12, cta: 2 initialized @(4772,0)
GPGPU-Sim uArch: Shader 13 finished CTA #2 (4773,0), 2 CTAs running
GPGPU-Sim uArch: core: 13, cta: 2 initialized @(4774,0)
GPGPU-Sim uArch: Shader 12 finished CTA #1 (4775,0), 2 CTAs running
GPGPU-Sim uArch: core: 12, cta: 1 initialized @(4776,0)
GPGPU-Sim uArch: Shader 14 finished CTA #1 (4777,0), 2 CTAs running
GPGPU-Sim uArch: core: 14, cta: 1 initialized @(4778,0)
GPGPU-Sim uArch: Shader 10 finished CTA #2 (4779,0), 2 CTAs running
GPGPU-Sim uArch: core: 10, cta: 2 initialized @(4780,0)
GPGPU-Sim uArch: Shader 11 finished CTA #2 (4781,0), 2 CTAs running
GPGPU-Sim uArch: core: 11, cta: 2 initialized @(4782,0)
GPGPU-Sim uArch: Shader 13 finished CTA #1 (4783,0), 2 CTAs running
GPGPU-Sim uArch: core: 13, cta: 1 initialized @(4784,0)
GPGPU-Sim uArch: Shader 12 finished CTA #0 (4785,0), 2 CTAs running
GPGPU-Sim uArch: core: 12, cta: 0 initialized @(4786,0)
GPGPU-Sim uArch: Shader 14 finished CTA #0 (4787,0), 2 CTAs running
GPGPU-Sim uArch: core: 14, cta: 0 initialized @(4788,0)
GPGPU-Sim uArch: Shader 10 finished CTA #1 (4789,0), 2 CTAs running
GPGPU-Sim uArch: core: 10, cta: 1 initialized @(4790,0)
GPGPU-Sim uArch: Shader 5 finished CTA #2 (4791,0), 2 CTAs running
GPGPU-Sim uArch: core:  5, cta: 2 initialized @(4792,0)
GPGPU-Sim uArch: Shader 10 finished CTA #0 (4794,0), 2 CTAs running
GPGPU-Sim uArch: core: 10, cta: 0 initialized @(4795,0)
GPGPU-Sim uArch: Shader 11 finished CTA #0 (4796,0), 2 CTAs running
GPGPU-Sim uArch: core: 11, cta: 0 initialized @(4797,0)
GPGPU-Sim uArch: Shader 14 finished CTA #2 (4797,0), 2 CTAs running
GPGPU-Sim uArch: core: 14, cta: 2 initialized @(4798,0)
GPGPU-Sim uArch: Shader 3 finished CTA #2 (4799,0), 2 CTAs running
GPGPU-Sim uArch: core:  3, cta: 2 initialized @(4800,0)
GPGPU-Sim uArch: Shader 0 finished CTA #1 (4896,0), 2 CTAs running
GPGPU-Sim uArch: core:  0, cta: 1 initialized @(4897,0)
GPGPU-Sim uArch: Shader 5 finished CTA #0 (4898,0), 2 CTAs running
GPGPU-Sim uArch: core:  5, cta: 0 initialized @(4899,0)
GPGPU-Sim uArch: Shader 3 finished CTA #0 (4902,0), 2 CTAs running
GPGPU-Sim uArch: Shader 5 finished CTA #1 (4902,0), 2 CTAs running
GPGPU-Sim uArch: core:  3, cta: 0 initialized @(4903,0)
GPGPU-Sim uArch: core:  5, cta: 1 initialized @(4903,0)
GPGPU-Sim uArch: Shader 3 finished CTA #1 (4906,0), 2 CTAs running
GPGPU-Sim uArch: core:  3, cta: 1 initialized @(4907,0)
GPGPU-Sim PTX: 1000000 instructions simulated : ctaid=(186,0,0) tid=(11,0,0)
GPGPU-Sim uArch: Shader 0 finished CTA #0 (4997,0), 2 CTAs running
GPGPU-Sim uArch: core:  0, cta: 0 initialized @(4998,0)
GPGPU-Sim uArch: cycles simulated: 5000  inst.: 984432 (ipc=196.9) sim_rate=41018 (inst/sec) elapsed = 0:0:00:24 / Fri May 15 01:27:18 2015
GPGPU-Sim uArch: Shader 1 finished CTA #2 (5072,0), 2 CTAs running
GPGPU-Sim uArch: core:  1, cta: 2 initialized @(5073,0)
GPGPU-Sim uArch: Shader 1 finished CTA #1 (5078,0), 2 CTAs running
GPGPU-Sim uArch: core:  1, cta: 1 initialized @(5079,0)
GPGPU-Sim uArch: Shader 6 finished CTA #1 (5173,0), 2 CTAs running
GPGPU-Sim uArch: core:  6, cta: 1 initialized @(5174,0)
GPGPU-Sim uArch: Shader 7 finished CTA #0 (5180,0), 2 CTAs running
GPGPU-Sim uArch: core:  7, cta: 0 initialized @(5181,0)
GPGPU-Sim uArch: Shader 6 finished CTA #0 (5183,0), 2 CTAs running
GPGPU-Sim uArch: core:  6, cta: 0 initialized @(5184,0)
GPGPU-Sim uArch: Shader 7 finished CTA #1 (5186,0), 2 CTAs running
GPGPU-Sim uArch: core:  7, cta: 1 initialized @(5187,0)
GPGPU-Sim uArch: Shader 2 finished CTA #0 (5189,0), 2 CTAs running
GPGPU-Sim uArch: core:  2, cta: 0 initialized @(5190,0)
GPGPU-Sim uArch: Shader 6 finished CTA #2 (5193,0), 2 CTAs running
GPGPU-Sim uArch: core:  6, cta: 2 initialized @(5194,0)
GPGPU-Sim uArch: Shader 8 finished CTA #0 (5195,0), 2 CTAs running
GPGPU-Sim uArch: core:  8, cta: 0 initialized @(5196,0)
GPGPU-Sim uArch: Shader 7 finished CTA #2 (5300,0), 2 CTAs running
GPGPU-Sim uArch: core:  7, cta: 2 initialized @(5301,0)
GPGPU-Sim uArch: Shader 4 finished CTA #0 (5317,0), 2 CTAs running
GPGPU-Sim uArch: core:  4, cta: 0 initialized @(5318,0)
GPGPU-Sim uArch: Shader 8 finished CTA #2 (5319,0), 2 CTAs running
GPGPU-Sim uArch: core:  8, cta: 2 initialized @(5320,0)
GPGPU-Sim uArch: Shader 9 finished CTA #0 (5321,0), 2 CTAs running
GPGPU-Sim uArch: core:  9, cta: 0 initialized @(5322,0)
GPGPU-Sim uArch: Shader 2 finished CTA #1 (5323,0), 2 CTAs running
GPGPU-Sim uArch: core:  2, cta: 1 initialized @(5324,0)
GPGPU-Sim uArch: Shader 4 finished CTA #1 (5326,0), 2 CTAs running
GPGPU-Sim uArch: core:  4, cta: 1 initialized @(5327,0)
GPGPU-Sim uArch: Shader 2 finished CTA #2 (5329,0), 2 CTAs running
GPGPU-Sim uArch: core:  2, cta: 2 initialized @(5330,0)
GPGPU-Sim uArch: Shader 4 finished CTA #2 (5330,0), 2 CTAs running
GPGPU-Sim uArch: core:  4, cta: 2 initialized @(5331,0)
GPGPU-Sim uArch: Shader 9 finished CTA #1 (5331,0), 2 CTAs running
GPGPU-Sim uArch: core:  9, cta: 1 initialized @(5332,0)
GPGPU-Sim uArch: Shader 0 finished CTA #2 (5335,0), 2 CTAs running
GPGPU-Sim uArch: Shader 9 finished CTA #2 (5335,0), 2 CTAs running
GPGPU-Sim uArch: core:  0, cta: 2 initialized @(5336,0)
GPGPU-Sim uArch: core:  9, cta: 2 initialized @(5336,0)
GPGPU-Sim uArch: Shader 8 finished CTA #1 (5337,0), 2 CTAs running
GPGPU-Sim uArch: core:  8, cta: 1 initialized @(5338,0)
GPGPU-Sim PTX: 1100000 instructions simulated : ctaid=(242,0,0) tid=(16,0,0)
GPGPU-Sim uArch: Shader 5 finished CTA #2 (5439,0), 2 CTAs running
GPGPU-Sim uArch: core:  5, cta: 2 initialized @(5440,0)
GPGPU-Sim uArch: Shader 13 finished CTA #0 (5441,0), 2 CTAs running
GPGPU-Sim uArch: core: 13, cta: 0 initialized @(5442,0)
GPGPU-Sim uArch: Shader 3 finished CTA #2 (5445,0), 2 CTAs running
GPGPU-Sim uArch: Shader 13 finished CTA #2 (5445,0), 2 CTAs running
GPGPU-Sim uArch: core:  3, cta: 2 initialized @(5446,0)
GPGPU-Sim uArch: core: 13, cta: 2 initialized @(5446,0)
GPGPU-Sim uArch: Shader 11 finished CTA #1 (5447,0), 2 CTAs running
GPGPU-Sim uArch: core: 11, cta: 1 initialized @(5448,0)
GPGPU-Sim uArch: Shader 12 finished CTA #2 (5449,0), 2 CTAs running
GPGPU-Sim uArch: core: 12, cta: 2 initialized @(5450,0)
GPGPU-Sim uArch: Shader 13 finished CTA #1 (5451,0), 2 CTAs running
GPGPU-Sim uArch: core: 13, cta: 1 initialized @(5452,0)
GPGPU-Sim uArch: Shader 14 finished CTA #1 (5453,0), 2 CTAs running
GPGPU-Sim uArch: core: 14, cta: 1 initialized @(5454,0)
GPGPU-Sim uArch: Shader 0 finished CTA #1 (5455,0), 2 CTAs running
GPGPU-Sim uArch: Shader 10 finished CTA #2 (5457,0), 2 CTAs running
GPGPU-Sim uArch: Shader 11 finished CTA #2 (5459,0), 2 CTAs running
GPGPU-Sim uArch: Shader 12 finished CTA #1 (5461,0), 2 CTAs running
GPGPU-Sim uArch: Shader 14 finished CTA #0 (5463,0), 2 CTAs running
GPGPU-Sim uArch: Shader 10 finished CTA #1 (5465,0), 1 CTAs running
GPGPU-Sim uArch: Shader 11 finished CTA #0 (5467,0), 1 CTAs running
GPGPU-Sim uArch: Shader 12 finished CTA #0 (5469,0), 1 CTAs running
GPGPU-Sim uArch: Shader 14 finished CTA #2 (5471,0), 1 CTAs running
GPGPU-Sim uArch: Shader 10 finished CTA #0 (5473,0), 0 CTAs running
GPGPU-Sim uArch: Shader 10 empty (release kernel 1 '_Z24solve_nqueen_cuda_kerneliiPjS_S_S_i').
GPGPU-Sim uArch: cycles simulated: 5500  inst.: 1116358 (ipc=203.0) sim_rate=41346 (inst/sec) elapsed = 0:0:00:27 / Fri May 15 01:27:21 2015
GPGPU-Sim uArch: Shader 5 finished CTA #0 (5512,0), 2 CTAs running
GPGPU-Sim uArch: Shader 3 finished CTA #0 (5519,0), 2 CTAs running
GPGPU-Sim uArch: Shader 5 finished CTA #1 (5622,0), 1 CTAs running
GPGPU-Sim uArch: Shader 3 finished CTA #1 (5642,0), 1 CTAs running
GPGPU-Sim uArch: Shader 0 finished CTA #0 (5711,0), 1 CTAs running
GPGPU-Sim PTX: 1200000 instructions simulated : ctaid=(239,0,0) tid=(55,0,0)
GPGPU-Sim uArch: Shader 1 finished CTA #2 (5743,0), 2 CTAs running
GPGPU-Sim uArch: Shader 7 finished CTA #0 (5749,0), 2 CTAs running
GPGPU-Sim uArch: Shader 1 finished CTA #1 (5756,0), 1 CTAs running
GPGPU-Sim uArch: Shader 7 finished CTA #1 (5762,0), 1 CTAs running
GPGPU-Sim uArch: Shader 8 finished CTA #0 (5767,0), 2 CTAs running
GPGPU-Sim uArch: Shader 2 finished CTA #0 (5770,0), 2 CTAs running
GPGPU-Sim uArch: Shader 6 finished CTA #1 (5837,0), 2 CTAs running
GPGPU-Sim uArch: Shader 6 finished CTA #0 (5844,0), 1 CTAs running
GPGPU-Sim uArch: Shader 6 finished CTA #2 (5847,0), 0 CTAs running
GPGPU-Sim uArch: Shader 6 empty (release kernel 1 '_Z24solve_nqueen_cuda_kerneliiPjS_S_S_i').
GPGPU-Sim uArch: Shader 0 finished CTA #2 (5878,0), 0 CTAs running
GPGPU-Sim uArch: Shader 0 empty (release kernel 1 '_Z24solve_nqueen_cuda_kerneliiPjS_S_S_i').
GPGPU-Sim uArch: Shader 8 finished CTA #2 (5939,0), 1 CTAs running
GPGPU-Sim uArch: Shader 2 finished CTA #1 (5942,0), 1 CTAs running
GPGPU-Sim uArch: Shader 8 finished CTA #1 (5945,0), 0 CTAs running
GPGPU-Sim uArch: Shader 8 empty (release kernel 1 '_Z24solve_nqueen_cuda_kerneliiPjS_S_S_i').
GPGPU-Sim uArch: Shader 2 finished CTA #2 (5948,0), 0 CTAs running
GPGPU-Sim uArch: Shader 2 empty (release kernel 1 '_Z24solve_nqueen_cuda_kerneliiPjS_S_S_i').
GPGPU-Sim uArch: Shader 5 finished CTA #2 (5954,0), 0 CTAs running
GPGPU-Sim uArch: Shader 5 empty (release kernel 1 '_Z24solve_nqueen_cuda_kerneliiPjS_S_S_i').
GPGPU-Sim uArch: Shader 3 finished CTA #2 (5960,0), 0 CTAs running
GPGPU-Sim uArch: Shader 3 empty (release kernel 1 '_Z24solve_nqueen_cuda_kerneliiPjS_S_S_i').
GPGPU-Sim uArch: Shader 11 finished CTA #1 (5963,0), 0 CTAs running
GPGPU-Sim uArch: Shader 11 empty (release kernel 1 '_Z24solve_nqueen_cuda_kerneliiPjS_S_S_i').
GPGPU-Sim uArch: Shader 12 finished CTA #2 (5966,0), 0 CTAs running
GPGPU-Sim uArch: Shader 12 empty (release kernel 1 '_Z24solve_nqueen_cuda_kerneliiPjS_S_S_i').
GPGPU-Sim uArch: Shader 14 finished CTA #1 (5969,0), 0 CTAs running
GPGPU-Sim uArch: Shader 14 empty (release kernel 1 '_Z24solve_nqueen_cuda_kerneliiPjS_S_S_i').
GPGPU-Sim uArch: Shader 7 finished CTA #2 (5972,0), 0 CTAs running
GPGPU-Sim uArch: Shader 7 empty (release kernel 1 '_Z24solve_nqueen_cuda_kerneliiPjS_S_S_i').
GPGPU-Sim uArch: Shader 4 finished CTA #0 (5980,0), 2 CTAs running
GPGPU-Sim uArch: Shader 9 finished CTA #0 (5985,0), 2 CTAs running
GPGPU-Sim uArch: Shader 4 finished CTA #1 (5988,0), 1 CTAs running
GPGPU-Sim uArch: Shader 4 finished CTA #2 (5991,0), 0 CTAs running
GPGPU-Sim uArch: Shader 4 empty (release kernel 1 '_Z24solve_nqueen_cuda_kerneliiPjS_S_S_i').
GPGPU-Sim uArch: Shader 9 finished CTA #1 (5994,0), 1 CTAs running
GPGPU-Sim uArch: Shader 9 finished CTA #2 (5997,0), 0 CTAs running
GPGPU-Sim uArch: Shader 9 empty (release kernel 1 '_Z24solve_nqueen_cuda_kerneliiPjS_S_S_i').
GPGPU-Sim uArch: cycles simulated: 6000  inst.: 1194381 (ipc=199.1) sim_rate=41185 (inst/sec) elapsed = 0:0:00:29 / Fri May 15 01:27:23 2015
GPGPU-Sim uArch: Shader 13 finished CTA #0 (6101,0), 2 CTAs running
GPGPU-Sim uArch: Shader 13 finished CTA #2 (6108,0), 1 CTAs running
GPGPU-Sim uArch: Shader 13 finished CTA #1 (6111,0), 0 CTAs running
GPGPU-Sim uArch: Shader 13 empty (release kernel 1 '_Z24solve_nqueen_cuda_kerneliiPjS_S_S_i').
GPGPU-Sim uArch: cycles simulated: 8000  inst.: 1202088 (ipc=150.3) sim_rate=40069 (inst/sec) elapsed = 0:0:00:30 / Fri May 15 01:27:24 2015
GPGPU-Sim uArch: cycles simulated: 9500  inst.: 1208099 (ipc=127.2) sim_rate=38970 (inst/sec) elapsed = 0:0:00:31 / Fri May 15 01:27:25 2015
GPGPU-Sim uArch: cycles simulated: 11000  inst.: 1213753 (ipc=110.3) sim_rate=37929 (inst/sec) elapsed = 0:0:00:32 / Fri May 15 01:27:26 2015
GPGPU-Sim uArch: cycles simulated: 13000  inst.: 1221885 (ipc=94.0) sim_rate=37026 (inst/sec) elapsed = 0:0:00:33 / Fri May 15 01:27:27 2015
GPGPU-Sim uArch: cycles simulated: 14500  inst.: 1227751 (ipc=84.7) sim_rate=36110 (inst/sec) elapsed = 0:0:00:34 / Fri May 15 01:27:28 2015
GPGPU-Sim uArch: cycles simulated: 16500  inst.: 1235356 (ipc=74.9) sim_rate=35295 (inst/sec) elapsed = 0:0:00:35 / Fri May 15 01:27:29 2015
GPGPU-Sim uArch: cycles simulated: 18000  inst.: 1241187 (ipc=69.0) sim_rate=34477 (inst/sec) elapsed = 0:0:00:36 / Fri May 15 01:27:30 2015
GPGPU-Sim uArch: cycles simulated: 20000  inst.: 1248777 (ipc=62.4) sim_rate=33750 (inst/sec) elapsed = 0:0:00:37 / Fri May 15 01:27:31 2015
GPGPU-Sim uArch: cycles simulated: 22000  inst.: 1256917 (ipc=57.1) sim_rate=33076 (inst/sec) elapsed = 0:0:00:38 / Fri May 15 01:27:32 2015
GPGPU-Sim uArch: cycles simulated: 24000  inst.: 1264309 (ipc=52.7) sim_rate=32418 (inst/sec) elapsed = 0:0:00:39 / Fri May 15 01:27:33 2015
GPGPU-Sim uArch: cycles simulated: 26000  inst.: 1271938 (ipc=48.9) sim_rate=31798 (inst/sec) elapsed = 0:0:00:40 / Fri May 15 01:27:34 2015
GPGPU-Sim PTX: 1300000 instructions simulated : ctaid=(0,0,0) tid=(6,0,0)
GPGPU-Sim uArch: cycles simulated: 28000  inst.: 1279752 (ipc=45.7) sim_rate=31213 (inst/sec) elapsed = 0:0:00:41 / Fri May 15 01:27:35 2015
GPGPU-Sim uArch: cycles simulated: 30000  inst.: 1287483 (ipc=42.9) sim_rate=30654 (inst/sec) elapsed = 0:0:00:42 / Fri May 15 01:27:36 2015
GPGPU-Sim uArch: cycles simulated: 32000  inst.: 1295340 (ipc=40.5) sim_rate=30124 (inst/sec) elapsed = 0:0:00:43 / Fri May 15 01:27:37 2015
GPGPU-Sim uArch: cycles simulated: 33500  inst.: 1300882 (ipc=38.8) sim_rate=29565 (inst/sec) elapsed = 0:0:00:44 / Fri May 15 01:27:38 2015
GPGPU-Sim uArch: cycles simulated: 35500  inst.: 1308749 (ipc=36.9) sim_rate=29083 (inst/sec) elapsed = 0:0:00:45 / Fri May 15 01:27:39 2015
GPGPU-Sim uArch: cycles simulated: 37500  inst.: 1316413 (ipc=35.1) sim_rate=28617 (inst/sec) elapsed = 0:0:00:46 / Fri May 15 01:27:40 2015
GPGPU-Sim uArch: cycles simulated: 39500  inst.: 1324055 (ipc=33.5) sim_rate=28171 (inst/sec) elapsed = 0:0:00:47 / Fri May 15 01:27:41 2015
GPGPU-Sim uArch: cycles simulated: 41500  inst.: 1332224 (ipc=32.1) sim_rate=27754 (inst/sec) elapsed = 0:0:00:48 / Fri May 15 01:27:42 2015
GPGPU-Sim uArch: cycles simulated: 43000  inst.: 1337884 (ipc=31.1) sim_rate=27303 (inst/sec) elapsed = 0:0:00:49 / Fri May 15 01:27:43 2015
GPGPU-Sim uArch: cycles simulated: 45000  inst.: 1345129 (ipc=29.9) sim_rate=26902 (inst/sec) elapsed = 0:0:00:50 / Fri May 15 01:27:44 2015
GPGPU-Sim uArch: cycles simulated: 47000  inst.: 1353153 (ipc=28.8) sim_rate=26532 (inst/sec) elapsed = 0:0:00:51 / Fri May 15 01:27:45 2015
GPGPU-Sim uArch: cycles simulated: 49000  inst.: 1360815 (ipc=27.8) sim_rate=26169 (inst/sec) elapsed = 0:0:00:52 / Fri May 15 01:27:46 2015
GPGPU-Sim uArch: cycles simulated: 51000  inst.: 1368282 (ipc=26.8) sim_rate=25816 (inst/sec) elapsed = 0:0:00:53 / Fri May 15 01:27:47 2015
GPGPU-Sim PTX: 1400000 instructions simulated : ctaid=(0,0,0) tid=(1,0,0)
GPGPU-Sim uArch: cycles simulated: 53000  inst.: 1375939 (ipc=26.0) sim_rate=25480 (inst/sec) elapsed = 0:0:00:54 / Fri May 15 01:27:48 2015
GPGPU-Sim uArch: cycles simulated: 55000  inst.: 1383542 (ipc=25.2) sim_rate=25155 (inst/sec) elapsed = 0:0:00:55 / Fri May 15 01:27:49 2015
GPGPU-Sim uArch: cycles simulated: 56500  inst.: 1389746 (ipc=24.6) sim_rate=24816 (inst/sec) elapsed = 0:0:00:56 / Fri May 15 01:27:50 2015
GPGPU-Sim uArch: cycles simulated: 59000  inst.: 1398989 (ipc=23.7) sim_rate=24543 (inst/sec) elapsed = 0:0:00:57 / Fri May 15 01:27:51 2015
GPGPU-Sim uArch: cycles simulated: 61000  inst.: 1406664 (ipc=23.1) sim_rate=24252 (inst/sec) elapsed = 0:0:00:58 / Fri May 15 01:27:52 2015
GPGPU-Sim uArch: cycles simulated: 63000  inst.: 1414292 (ipc=22.4) sim_rate=23971 (inst/sec) elapsed = 0:0:00:59 / Fri May 15 01:27:53 2015
GPGPU-Sim uArch: cycles simulated: 65000  inst.: 1421834 (ipc=21.9) sim_rate=23697 (inst/sec) elapsed = 0:0:01:00 / Fri May 15 01:27:54 2015
GPGPU-Sim uArch: cycles simulated: 67000  inst.: 1429820 (ipc=21.3) sim_rate=23439 (inst/sec) elapsed = 0:0:01:01 / Fri May 15 01:27:55 2015
GPGPU-Sim uArch: cycles simulated: 68500  inst.: 1435408 (ipc=21.0) sim_rate=23151 (inst/sec) elapsed = 0:0:01:02 / Fri May 15 01:27:56 2015
GPGPU-Sim uArch: cycles simulated: 70500  inst.: 1442999 (ipc=20.5) sim_rate=22904 (inst/sec) elapsed = 0:0:01:03 / Fri May 15 01:27:57 2015
GPGPU-Sim uArch: cycles simulated: 72500  inst.: 1450885 (ipc=20.0) sim_rate=22670 (inst/sec) elapsed = 0:0:01:04 / Fri May 15 01:27:58 2015
GPGPU-Sim uArch: cycles simulated: 74500  inst.: 1458368 (ipc=19.6) sim_rate=22436 (inst/sec) elapsed = 0:0:01:05 / Fri May 15 01:27:59 2015
GPGPU-Sim PTX: 1500000 instructions simulated : ctaid=(0,0,0) tid=(34,0,0)
GPGPU-Sim uArch: cycles simulated: 76500  inst.: 1466096 (ipc=19.2) sim_rate=22213 (inst/sec) elapsed = 0:0:01:06 / Fri May 15 01:28:00 2015
GPGPU-Sim uArch: cycles simulated: 78500  inst.: 1473678 (ipc=18.8) sim_rate=21995 (inst/sec) elapsed = 0:0:01:07 / Fri May 15 01:28:01 2015
GPGPU-Sim uArch: cycles simulated: 80500  inst.: 1481163 (ipc=18.4) sim_rate=21781 (inst/sec) elapsed = 0:0:01:08 / Fri May 15 01:28:02 2015
GPGPU-Sim uArch: cycles simulated: 82500  inst.: 1489116 (ipc=18.0) sim_rate=21581 (inst/sec) elapsed = 0:0:01:09 / Fri May 15 01:28:03 2015
GPGPU-Sim uArch: cycles simulated: 84500  inst.: 1496435 (ipc=17.7) sim_rate=21377 (inst/sec) elapsed = 0:0:01:10 / Fri May 15 01:28:04 2015
GPGPU-Sim uArch: cycles simulated: 87000  inst.: 1506355 (ipc=17.3) sim_rate=21216 (inst/sec) elapsed = 0:0:01:11 / Fri May 15 01:28:05 2015
GPGPU-Sim uArch: cycles simulated: 89000  inst.: 1513950 (ipc=17.0) sim_rate=21027 (inst/sec) elapsed = 0:0:01:12 / Fri May 15 01:28:06 2015
GPGPU-Sim uArch: cycles simulated: 91000  inst.: 1521721 (ipc=16.7) sim_rate=20845 (inst/sec) elapsed = 0:0:01:13 / Fri May 15 01:28:07 2015
GPGPU-Sim uArch: cycles simulated: 93000  inst.: 1529185 (ipc=16.4) sim_rate=20664 (inst/sec) elapsed = 0:0:01:14 / Fri May 15 01:28:08 2015
GPGPU-Sim uArch: cycles simulated: 95000  inst.: 1537091 (ipc=16.2) sim_rate=20494 (inst/sec) elapsed = 0:0:01:15 / Fri May 15 01:28:09 2015
GPGPU-Sim uArch: cycles simulated: 97000  inst.: 1544251 (ipc=15.9) sim_rate=20319 (inst/sec) elapsed = 0:0:01:16 / Fri May 15 01:28:10 2015
GPGPU-Sim uArch: cycles simulated: 98500  inst.: 1550203 (ipc=15.7) sim_rate=20132 (inst/sec) elapsed = 0:0:01:17 / Fri May 15 01:28:11 2015
GPGPU-Sim uArch: cycles simulated: 100500  inst.: 1557487 (ipc=15.5) sim_rate=19967 (inst/sec) elapsed = 0:0:01:18 / Fri May 15 01:28:12 2015
GPGPU-Sim PTX: 1600000 instructions simulated : ctaid=(0,0,0) tid=(38,0,0)
GPGPU-Sim uArch: cycles simulated: 102500  inst.: 1565365 (ipc=15.3) sim_rate=19814 (inst/sec) elapsed = 0:0:01:19 / Fri May 15 01:28:13 2015
GPGPU-Sim uArch: cycles simulated: 104500  inst.: 1573088 (ipc=15.1) sim_rate=19663 (inst/sec) elapsed = 0:0:01:20 / Fri May 15 01:28:14 2015
GPGPU-Sim uArch: cycles simulated: 106500  inst.: 1580868 (ipc=14.8) sim_rate=19516 (inst/sec) elapsed = 0:0:01:21 / Fri May 15 01:28:15 2015
GPGPU-Sim uArch: cycles simulated: 108500  inst.: 1588569 (ipc=14.6) sim_rate=19372 (inst/sec) elapsed = 0:0:01:22 / Fri May 15 01:28:16 2015
GPGPU-Sim uArch: cycles simulated: 110500  inst.: 1596064 (ipc=14.4) sim_rate=19229 (inst/sec) elapsed = 0:0:01:23 / Fri May 15 01:28:17 2015
GPGPU-Sim uArch: cycles simulated: 112500  inst.: 1603546 (ipc=14.3) sim_rate=19089 (inst/sec) elapsed = 0:0:01:24 / Fri May 15 01:28:18 2015
GPGPU-Sim uArch: cycles simulated: 114500  inst.: 1611243 (ipc=14.1) sim_rate=18955 (inst/sec) elapsed = 0:0:01:25 / Fri May 15 01:28:19 2015
GPGPU-Sim uArch: cycles simulated: 116500  inst.: 1618770 (ipc=13.9) sim_rate=18822 (inst/sec) elapsed = 0:0:01:26 / Fri May 15 01:28:20 2015
GPGPU-Sim uArch: cycles simulated: 118500  inst.: 1626557 (ipc=13.7) sim_rate=18696 (inst/sec) elapsed = 0:0:01:27 / Fri May 15 01:28:21 2015
GPGPU-Sim uArch: cycles simulated: 120000  inst.: 1632058 (ipc=13.6) sim_rate=18546 (inst/sec) elapsed = 0:0:01:28 / Fri May 15 01:28:22 2015
GPGPU-Sim uArch: cycles simulated: 122000  inst.: 1640097 (ipc=13.4) sim_rate=18428 (inst/sec) elapsed = 0:0:01:29 / Fri May 15 01:28:23 2015
GPGPU-Sim uArch: cycles simulated: 124000  inst.: 1647461 (ipc=13.3) sim_rate=18305 (inst/sec) elapsed = 0:0:01:30 / Fri May 15 01:28:24 2015
GPGPU-Sim uArch: cycles simulated: 126000  inst.: 1655070 (ipc=13.1) sim_rate=18187 (inst/sec) elapsed = 0:0:01:31 / Fri May 15 01:28:25 2015
GPGPU-Sim PTX: 1700000 instructions simulated : ctaid=(0,0,0) tid=(17,0,0)
GPGPU-Sim uArch: cycles simulated: 128000  inst.: 1663092 (ipc=13.0) sim_rate=18077 (inst/sec) elapsed = 0:0:01:32 / Fri May 15 01:28:26 2015
GPGPU-Sim uArch: cycles simulated: 129500  inst.: 1668545 (ipc=12.9) sim_rate=17941 (inst/sec) elapsed = 0:0:01:33 / Fri May 15 01:28:27 2015
GPGPU-Sim uArch: cycles simulated: 131500  inst.: 1676273 (ipc=12.7) sim_rate=17832 (inst/sec) elapsed = 0:0:01:34 / Fri May 15 01:28:28 2015
GPGPU-Sim uArch: cycles simulated: 133500  inst.: 1684022 (ipc=12.6) sim_rate=17726 (inst/sec) elapsed = 0:0:01:35 / Fri May 15 01:28:29 2015
GPGPU-Sim uArch: cycles simulated: 135000  inst.: 1690067 (ipc=12.5) sim_rate=17604 (inst/sec) elapsed = 0:0:01:36 / Fri May 15 01:28:30 2015
GPGPU-Sim uArch: cycles simulated: 137000  inst.: 1697431 (ipc=12.4) sim_rate=17499 (inst/sec) elapsed = 0:0:01:37 / Fri May 15 01:28:31 2015
GPGPU-Sim uArch: cycles simulated: 139000  inst.: 1705104 (ipc=12.3) sim_rate=17399 (inst/sec) elapsed = 0:0:01:38 / Fri May 15 01:28:32 2015
GPGPU-Sim uArch: cycles simulated: 141000  inst.: 1712570 (ipc=12.1) sim_rate=17298 (inst/sec) elapsed = 0:0:01:39 / Fri May 15 01:28:33 2015
GPGPU-Sim uArch: cycles simulated: 142500  inst.: 1718456 (ipc=12.1) sim_rate=17184 (inst/sec) elapsed = 0:0:01:40 / Fri May 15 01:28:34 2015
GPGPU-Sim uArch: cycles simulated: 144500  inst.: 1726154 (ipc=11.9) sim_rate=17090 (inst/sec) elapsed = 0:0:01:41 / Fri May 15 01:28:35 2015
GPGPU-Sim uArch: cycles simulated: 146500  inst.: 1733844 (ipc=11.8) sim_rate=16998 (inst/sec) elapsed = 0:0:01:42 / Fri May 15 01:28:36 2015
GPGPU-Sim uArch: cycles simulated: 148500  inst.: 1741308 (ipc=11.7) sim_rate=16905 (inst/sec) elapsed = 0:0:01:43 / Fri May 15 01:28:37 2015
GPGPU-Sim uArch: cycles simulated: 150500  inst.: 1748984 (ipc=11.6) sim_rate=16817 (inst/sec) elapsed = 0:0:01:44 / Fri May 15 01:28:38 2015
GPGPU-Sim PTX: 1800000 instructions simulated : ctaid=(0,0,0) tid=(14,0,0)
GPGPU-Sim uArch: cycles simulated: 152000  inst.: 1754685 (ipc=11.5) sim_rate=16711 (inst/sec) elapsed = 0:0:01:45 / Fri May 15 01:28:39 2015
GPGPU-Sim uArch: cycles simulated: 153500  inst.: 1760651 (ipc=11.5) sim_rate=16609 (inst/sec) elapsed = 0:0:01:46 / Fri May 15 01:28:40 2015
GPGPU-Sim uArch: cycles simulated: 156000  inst.: 1770371 (ipc=11.3) sim_rate=16545 (inst/sec) elapsed = 0:0:01:47 / Fri May 15 01:28:41 2015
GPGPU-Sim uArch: cycles simulated: 158000  inst.: 1777850 (ipc=11.3) sim_rate=16461 (inst/sec) elapsed = 0:0:01:48 / Fri May 15 01:28:42 2015
GPGPU-Sim uArch: cycles simulated: 160000  inst.: 1785594 (ipc=11.2) sim_rate=16381 (inst/sec) elapsed = 0:0:01:49 / Fri May 15 01:28:43 2015
GPGPU-Sim uArch: cycles simulated: 162000  inst.: 1793241 (ipc=11.1) sim_rate=16302 (inst/sec) elapsed = 0:0:01:50 / Fri May 15 01:28:44 2015
GPGPU-Sim uArch: cycles simulated: 164000  inst.: 1800907 (ipc=11.0) sim_rate=16224 (inst/sec) elapsed = 0:0:01:51 / Fri May 15 01:28:45 2015
GPGPU-Sim uArch: cycles simulated: 166000  inst.: 1808558 (ipc=10.9) sim_rate=16147 (inst/sec) elapsed = 0:0:01:52 / Fri May 15 01:28:46 2015
GPGPU-Sim uArch: cycles simulated: 168000  inst.: 1816197 (ipc=10.8) sim_rate=16072 (inst/sec) elapsed = 0:0:01:53 / Fri May 15 01:28:47 2015
GPGPU-Sim uArch: cycles simulated: 170000  inst.: 1823891 (ipc=10.7) sim_rate=15999 (inst/sec) elapsed = 0:0:01:54 / Fri May 15 01:28:48 2015
GPGPU-Sim uArch: cycles simulated: 172500  inst.: 1833331 (ipc=10.6) sim_rate=15942 (inst/sec) elapsed = 0:0:01:55 / Fri May 15 01:28:49 2015
GPGPU-Sim uArch: cycles simulated: 174500  inst.: 1840712 (ipc=10.5) sim_rate=15868 (inst/sec) elapsed = 0:0:01:56 / Fri May 15 01:28:50 2015
GPGPU-Sim uArch: cycles simulated: 176500  inst.: 1848572 (ipc=10.5) sim_rate=15799 (inst/sec) elapsed = 0:0:01:57 / Fri May 15 01:28:51 2015
GPGPU-Sim PTX: 1900000 instructions simulated : ctaid=(0,0,0) tid=(24,0,0)
GPGPU-Sim uArch: cycles simulated: 178500  inst.: 1855935 (ipc=10.4) sim_rate=15728 (inst/sec) elapsed = 0:0:01:58 / Fri May 15 01:28:52 2015
GPGPU-Sim uArch: cycles simulated: 180500  inst.: 1863927 (ipc=10.3) sim_rate=15663 (inst/sec) elapsed = 0:0:01:59 / Fri May 15 01:28:53 2015
GPGPU-Sim uArch: cycles simulated: 183000  inst.: 1873639 (ipc=10.2) sim_rate=15613 (inst/sec) elapsed = 0:0:02:00 / Fri May 15 01:28:54 2015
GPGPU-Sim uArch: cycles simulated: 185000  inst.: 1880952 (ipc=10.2) sim_rate=15545 (inst/sec) elapsed = 0:0:02:01 / Fri May 15 01:28:55 2015
GPGPU-Sim uArch: cycles simulated: 187000  inst.: 1888745 (ipc=10.1) sim_rate=15481 (inst/sec) elapsed = 0:0:02:02 / Fri May 15 01:28:56 2015
GPGPU-Sim uArch: cycles simulated: 189000  inst.: 1896393 (ipc=10.0) sim_rate=15417 (inst/sec) elapsed = 0:0:02:03 / Fri May 15 01:28:57 2015
GPGPU-Sim uArch: cycles simulated: 191500  inst.: 1906032 (ipc=10.0) sim_rate=15371 (inst/sec) elapsed = 0:0:02:04 / Fri May 15 01:28:58 2015
GPGPU-Sim uArch: cycles simulated: 193500  inst.: 1913644 (ipc= 9.9) sim_rate=15309 (inst/sec) elapsed = 0:0:02:05 / Fri May 15 01:28:59 2015
GPGPU-Sim uArch: cycles simulated: 195500  inst.: 1921294 (ipc= 9.8) sim_rate=15248 (inst/sec) elapsed = 0:0:02:06 / Fri May 15 01:29:00 2015
GPGPU-Sim uArch: cycles simulated: 197500  inst.: 1929054 (ipc= 9.8) sim_rate=15189 (inst/sec) elapsed = 0:0:02:07 / Fri May 15 01:29:01 2015
GPGPU-Sim uArch: cycles simulated: 200000  inst.: 1938597 (ipc= 9.7) sim_rate=15145 (inst/sec) elapsed = 0:0:02:08 / Fri May 15 01:29:02 2015
GPGPU-Sim uArch: cycles simulated: 202000  inst.: 1946012 (ipc= 9.6) sim_rate=15085 (inst/sec) elapsed = 0:0:02:09 / Fri May 15 01:29:03 2015
GPGPU-Sim PTX: 2000000 instructions simulated : ctaid=(0,0,0) tid=(11,0,0)
GPGPU-Sim uArch: cycles simulated: 204000  inst.: 1953666 (ipc= 9.6) sim_rate=15028 (inst/sec) elapsed = 0:0:02:10 / Fri May 15 01:29:04 2015
GPGPU-Sim uArch: cycles simulated: 206000  inst.: 1961187 (ipc= 9.5) sim_rate=14970 (inst/sec) elapsed = 0:0:02:11 / Fri May 15 01:29:05 2015
GPGPU-Sim uArch: cycles simulated: 208500  inst.: 1971037 (ipc= 9.5) sim_rate=14932 (inst/sec) elapsed = 0:0:02:12 / Fri May 15 01:29:06 2015
GPGPU-Sim uArch: cycles simulated: 210500  inst.: 1978474 (ipc= 9.4) sim_rate=14875 (inst/sec) elapsed = 0:0:02:13 / Fri May 15 01:29:07 2015
GPGPU-Sim uArch: cycles simulated: 212500  inst.: 1985960 (ipc= 9.3) sim_rate=14820 (inst/sec) elapsed = 0:0:02:14 / Fri May 15 01:29:08 2015
GPGPU-Sim uArch: cycles simulated: 214500  inst.: 1993973 (ipc= 9.3) sim_rate=14770 (inst/sec) elapsed = 0:0:02:15 / Fri May 15 01:29:09 2015
GPGPU-Sim uArch: cycles simulated: 216500  inst.: 2001521 (ipc= 9.2) sim_rate=14717 (inst/sec) elapsed = 0:0:02:16 / Fri May 15 01:29:10 2015
GPGPU-Sim uArch: cycles simulated: 219000  inst.: 2011042 (ipc= 9.2) sim_rate=14679 (inst/sec) elapsed = 0:0:02:17 / Fri May 15 01:29:11 2015
GPGPU-Sim uArch: cycles simulated: 221000  inst.: 2018998 (ipc= 9.1) sim_rate=14630 (inst/sec) elapsed = 0:0:02:18 / Fri May 15 01:29:12 2015
GPGPU-Sim uArch: cycles simulated: 223000  inst.: 2026664 (ipc= 9.1) sim_rate=14580 (inst/sec) elapsed = 0:0:02:19 / Fri May 15 01:29:13 2015
GPGPU-Sim uArch: cycles simulated: 225000  inst.: 2034225 (ipc= 9.0) sim_rate=14530 (inst/sec) elapsed = 0:0:02:20 / Fri May 15 01:29:14 2015
GPGPU-Sim PTX: 2100000 instructions simulated : ctaid=(0,0,0) tid=(22,0,0)
GPGPU-Sim uArch: cycles simulated: 227500  inst.: 2043954 (ipc= 9.0) sim_rate=14496 (inst/sec) elapsed = 0:0:02:21 / Fri May 15 01:29:15 2015
GPGPU-Sim uArch: cycles simulated: 229500  inst.: 2051571 (ipc= 8.9) sim_rate=14447 (inst/sec) elapsed = 0:0:02:22 / Fri May 15 01:29:16 2015
GPGPU-Sim uArch: cycles simulated: 231500  inst.: 2059177 (ipc= 8.9) sim_rate=14399 (inst/sec) elapsed = 0:0:02:23 / Fri May 15 01:29:17 2015
GPGPU-Sim uArch: cycles simulated: 233500  inst.: 2066873 (ipc= 8.9) sim_rate=14353 (inst/sec) elapsed = 0:0:02:24 / Fri May 15 01:29:18 2015
GPGPU-Sim uArch: cycles simulated: 236000  inst.: 2076195 (ipc= 8.8) sim_rate=14318 (inst/sec) elapsed = 0:0:02:25 / Fri May 15 01:29:19 2015
GPGPU-Sim uArch: cycles simulated: 238000  inst.: 2083900 (ipc= 8.8) sim_rate=14273 (inst/sec) elapsed = 0:0:02:26 / Fri May 15 01:29:20 2015
GPGPU-Sim uArch: cycles simulated: 240000  inst.: 2091749 (ipc= 8.7) sim_rate=14229 (inst/sec) elapsed = 0:0:02:27 / Fri May 15 01:29:21 2015
GPGPU-Sim uArch: cycles simulated: 242000  inst.: 2099531 (ipc= 8.7) sim_rate=14186 (inst/sec) elapsed = 0:0:02:28 / Fri May 15 01:29:22 2015
GPGPU-Sim uArch: cycles simulated: 244500  inst.: 2109170 (ipc= 8.6) sim_rate=14155 (inst/sec) elapsed = 0:0:02:29 / Fri May 15 01:29:23 2015
GPGPU-Sim uArch: cycles simulated: 246500  inst.: 2116570 (ipc= 8.6) sim_rate=14110 (inst/sec) elapsed = 0:0:02:30 / Fri May 15 01:29:24 2015
GPGPU-Sim uArch: cycles simulated: 248500  inst.: 2124429 (ipc= 8.5) sim_rate=14069 (inst/sec) elapsed = 0:0:02:31 / Fri May 15 01:29:25 2015
GPGPU-Sim uArch: cycles simulated: 250500  inst.: 2131782 (ipc= 8.5) sim_rate=14024 (inst/sec) elapsed = 0:0:02:32 / Fri May 15 01:29:26 2015
GPGPU-Sim uArch: cycles simulated: 252500  inst.: 2139631 (ipc= 8.5) sim_rate=13984 (inst/sec) elapsed = 0:0:02:33 / Fri May 15 01:29:27 2015
GPGPU-Sim PTX: 2200000 instructions simulated : ctaid=(0,0,0) tid=(29,0,0)
GPGPU-Sim uArch: cycles simulated: 255000  inst.: 2149023 (ipc= 8.4) sim_rate=13954 (inst/sec) elapsed = 0:0:02:34 / Fri May 15 01:29:28 2015
GPGPU-Sim uArch: cycles simulated: 257000  inst.: 2156635 (ipc= 8.4) sim_rate=13913 (inst/sec) elapsed = 0:0:02:35 / Fri May 15 01:29:29 2015
GPGPU-Sim uArch: cycles simulated: 259000  inst.: 2164478 (ipc= 8.4) sim_rate=13874 (inst/sec) elapsed = 0:0:02:36 / Fri May 15 01:29:30 2015
GPGPU-Sim uArch: cycles simulated: 261000  inst.: 2172075 (ipc= 8.3) sim_rate=13834 (inst/sec) elapsed = 0:0:02:37 / Fri May 15 01:29:31 2015
GPGPU-Sim uArch: cycles simulated: 263500  inst.: 2181689 (ipc= 8.3) sim_rate=13808 (inst/sec) elapsed = 0:0:02:38 / Fri May 15 01:29:32 2015
GPGPU-Sim uArch: cycles simulated: 265500  inst.: 2189312 (ipc= 8.2) sim_rate=13769 (inst/sec) elapsed = 0:0:02:39 / Fri May 15 01:29:33 2015
GPGPU-Sim uArch: cycles simulated: 267500  inst.: 2197214 (ipc= 8.2) sim_rate=13732 (inst/sec) elapsed = 0:0:02:40 / Fri May 15 01:29:34 2015
GPGPU-Sim uArch: cycles simulated: 269500  inst.: 2204340 (ipc= 8.2) sim_rate=13691 (inst/sec) elapsed = 0:0:02:41 / Fri May 15 01:29:35 2015
GPGPU-Sim uArch: cycles simulated: 272000  inst.: 2214052 (ipc= 8.1) sim_rate=13666 (inst/sec) elapsed = 0:0:02:42 / Fri May 15 01:29:36 2015
[...]
gpgpu_stall_shd_mem[l_mem_ld][mshr_rc] = 0
gpgpu_stall_shd_mem[l_mem_ld][icnt_rc] = 0
gpgpu_stall_shd_mem[l_mem_ld][wb_icnt_rc] = 0
gpgpu_stall_shd_mem[l_mem_ld][wb_rsrv_fail] = 0
gpgpu_stall_shd_mem[l_mem_st][mshr_rc] = 0
gpgpu_stall_shd_mem[l_mem_st][icnt_rc] = 0
gpgpu_stall_shd_mem[l_mem_ld][wb_icnt_rc] = 0
gpgpu_stall_shd_mem[l_mem_ld][wb_rsrv_fail] = 0
gpu_reg_bank_conflict_stalls = 0
Warp Occupancy Distribution:
Stall:1	W0_Idle:190957	W0_Scoreboard:1707944	W1:58343	W2:49239	W3:57113	W4:73868	W5:66801	W6:41149	W7:18141	W8:47111	W9:40299	W10:6147	W11:7205	W12:10051	W13:11265	W14:14310	W15:15910	W16:17569	W17:13601	W18:11656	W19:10144	W20:5919	W21:3097	W22:2843	W23:1751	W24:1090	W25:352	W26:883	W27:60	W28:420	W29:320	W30:260	W31:4540	W32:97340
traffic_breakdown_coretomem[CONST_ACC_R] = 120 {8:15,}
traffic_breakdown_coretomem[GLOBAL_ACC_R] = 72 {8:9,}
traffic_breakdown_coretomem[GLOBAL_ACC_W] = 20480 {40:512,}
traffic_breakdown_coretomem[INST_ACC_R] = 800 {8:100,}
traffic_breakdown_memtocore[CONST_ACC_R] = 1080 {72:15,}
traffic_breakdown_memtocore[GLOBAL_ACC_R] = 1224 {136:9,}
traffic_breakdown_memtocore[GLOBAL_ACC_W] = 4096 {8:512,}
traffic_breakdown_memtocore[INST_ACC_R] = 13600 {136:100,}
maxmrqlatency = 30 
maxdqlatency = 0 
maxmflatency = 363 
averagemflatency = 179 
max_icnt2mem_latency = 105 
max_icnt2sh_latency = 2450372 
mrq_lat_table:36 	0 	7 	8 	6 	0 	0 	0 	0 	0 	0 	0 	0 	0 	0 	0 	0 	0 	0 	0 	0 	0 	0 	0 	0 	0 	0 	0 	0 	0 	0 	0 	
dq_lat_table:0 	0 	0 	0 	0 	0 	0 	0 	0 	0 	0 	0 	0 	0 	0 	0 	0 	0 	0 	0 	0 	0 	0 	0 	0 	0 	0 	0 	0 	0 	0 	0 	
mf_lat_table:0 	0 	0 	0 	0 	0 	0 	466 	70 	0 	0 	0 	0 	0 	0 	0 	0 	0 	0 	0 	0 	0 	0 	0 	0 	0 	0 	0 	0 	0 	0 	0 	
icnt2mem_lat_table:0 	0 	0 	400 	128 	92 	16 	0 	0 	0 	0 	0 	0 	0 	0 	0 	0 	0 	0 	0 	0 	0 	0 	0 	
icnt2sh_lat_table:0 	0 	0 	10 	14 	0 	0 	0 	0 	0 	0 	132 	123 	0 	0 	0 	0 	0 	0 	0 	256 	1 	0 	0 	
mf_lat_pw_table:0 	0 	0 	0 	0 	0 	0 	17 	5 	0 	0 	0 	0 	0 	0 	0 	0 	0 	0 	0 	0 	0 	0 	0 	0 	0 	0 	0 	0 	0 	0 	0 	
maximum concurrent accesses to same row:
dram[0]:         1         0         0         0         0         0         0         0         0         0         0         0         0         0         0         0 
dram[1]:         0         0         0         0         0         0         0         0         0         0         0         0         0         0         0         0 
dram[2]:         0         0         0         0         0         0         0         0         0         0         0         0         0         0         0         0 
dram[3]:         0         0         0         0         0         0         0         0         0         0         0         0         0         0         0         0 
dram[4]:         0         0         0         0         0         0         0         0         0         0         0         0         0         0         0         0 
dram[5]:         0         0         0         0         0         0         0         0         0         0         0         0         0         0         0         0 
maximum service time to same row:
dram[0]:       309         0         0         0         0         0         0         0         0         0         0         0         0         0         0         0 
dram[1]:      1732         0         0         0         0         0         0         0         0         0         0         0         0         0         0         0 
dram[2]:      2422      2453         0         0         0      1157         0         0         0      1449         0         0         0      1738         0         0 
dram[3]:       826      3229         0         0         0         0         0         0         0         0         0         0         0         0         0         0 
dram[4]:      1485      3957         0         0         0         0         0         0         0         0         0         0         0         0         0         0 
dram[5]:      2154      5282         0         0         0         0         0         0         0         0         0         0         0         0         0         0 
average row accesses per activate:
dram[0]:  1.000000      -nan      -nan      -nan      -nan      -nan      -nan      -nan      -nan      -nan      -nan      -nan      -nan      -nan      -nan      -nan 
dram[1]:  2.000000      -nan      -nan      -nan      -nan      -nan      -nan      -nan      -nan      -nan      -nan      -nan      -nan      -nan      -nan      -nan 
dram[2]:  2.000000 10.000000      -nan      -nan      -nan  2.000000      -nan      -nan      -nan  2.000000      -nan      -nan      -nan  2.000000      -nan      -nan 
dram[3]:  2.000000 10.000000      -nan      -nan      -nan      -nan      -nan      -nan      -nan      -nan      -nan      -nan      -nan      -nan      -nan      -nan 
dram[4]:  2.000000 10.000000      -nan      -nan      -nan      -nan      -nan      -nan      -nan      -nan      -nan      -nan      -nan      -nan      -nan      -nan 
dram[5]:  1.000000  9.000000      -nan      -nan      -nan      -nan      -nan      -nan      -nan      -nan      -nan      -nan      -nan      -nan      -nan      -nan 
average row locality = 57/15 = 3.800000
number of total memory accesses made:
dram[0]:         0         0         0         0         0         0         0         0         0         0         0         0         0         0         0         0 
dram[1]:         0         0         0         0         0         0         0         0         0         0         0         0         0         0         0         0 
dram[2]:         0         0         0         0         0         0         0         0         0         0         0         0         0         0         0         0 
dram[3]:         0         0         0         0         0         0         0         0         0         0         0         0         0         0         0         0 
dram[4]:         0         0         0         0         0         0         0         0         0         0         0         0         0         0         0         0 
dram[5]:         0         0         0         0         0         0         0         0         0         0         0         0         0         0         0         0 
total accesses: 0
min_bank_accesses = 0!
min_chip_accesses = 0!
number of total read accesses:
dram[0]:         3         0         0         0         0         0         0         0         0         0         0         0         0         0         0         0 
dram[1]:         2         0         0         0         0         0         0         0         0         0         0         0         0         0         0         0 
dram[2]:         2         2         0         0         0         2         0         0         0         2         0         0         0         2         0         0 
dram[3]:         2         2         0         0         0         0         0         0         0         0         0         0         0         0         0         0 
dram[4]:         2         2         0         0         0         0         0         0         0         0         0         0         0         0         0         0 
dram[5]:         1         2         0         0         0         0         0         0         0         0         0         0         0         0         0         0 
total reads: 26
min_bank_accesses = 0!
chip skew: 10/2 = 5.00
number of total write accesses:
dram[0]:         0         0         0         0         0         0         0         0         0         0         0         0         0         0         0         0 
dram[1]:         0         0         0         0         0         0         0         0         0         0         0         0         0         0         0         0 
dram[2]:         0         8         0         0         0         0         0         0         0         0         0         0         0         0         0         0 
dram[3]:         0         8         0         0         0         0         0         0         0         0         0         0         0         0         0         0 
dram[4]:         0         8         0         0         0         0         0         0         0         0         0         0         0         0         0         0 
dram[5]:         0         7         0         0         0         0         0         0         0         0         0         0         0         0         0         0 
total reads: 31
min_bank_accesses = 0!
min_chip_accesses = 0!
average mf latency per bank:
dram[0]:       1300    none      none      none      none      none      none      none      none      none      none      none      none      none      none      none  
dram[1]:          0    none      none      none      none      none      none      none      none      none      none      none      none      none      none      none  
dram[2]:          0      2513    none      none      none         344    none      none      none         336    none      none      none         347    none      none  
dram[3]:          0      2291    none      none      none      none      none      none      none      none      none      none      none      none      none      none  
dram[4]:          0      2132    none      none      none      none      none      none      none      none      none      none      none      none      none      none  
dram[5]:          0      2293    none      none      none      none      none      none      none      none      none      none      none      none      none      none  
maximum mf latency per bank:
dram[0]:        278         0         0         0         0         0         0         0         0         0         0         0         0         0         0         0
dram[1]:          0         0         0         0         0         0         0         0         0         0         0         0         0         0         0         0
dram[2]:          0       363         0         0         0       277         0         0         0       268         0         0         0       269         0         0
dram[3]:          0       277         0         0         0         0         0         0         0         0         0         0         0         0         0         0
dram[4]:          0       276         0         0         0         0         0         0         0         0         0         0         0         0         0         0
dram[5]:          0       282         0         0         0         0         0         0         0         0         0         0         0         0         0         0

Number of Memory Banks Accessed per Memory Operation per Warp (from 0):
0	0	0	0	0	0	0	0	0	0	0	0	0	0	0	0	0	0	0	0	0	0	0	0	0	0	0	0	0	0	0	0	0	0	0	0	0	0	0	0	0	0	0	0	0	0	0	0	0	0	0	0	0	0	0	0	0	0	0	0	0	0	0	0	0	0	0	0	0	0	0	0	0	0	0	0	0	0	0	0	0	0	0	0	0	0	0	0	0	0	0	0	0	0	0	0	
Average # of Memory Banks Accessed per Memory Operation per Warp=-nan

position of mrq chosen
0	0	0	0	0	0	0	0	0	0	0	0	0	0	0	0	

average position of mrq chosen = -nan
Memory Partition 0: 
Cache L2_bank_000:
MSHR contents

Cache L2_bank_001:
MSHR contents

In Dram Latency Queue (total = 0): 
DRAM[0]: 16 bks, busW=4 BL=8 CL=12, tRRD=2 tCCD=6, tRCD=12 tRAS=28 tRP=12 tRC=40
n_cmd=3234491 n_nop=3234480 n_act=3 n_pre=2 n_req=3 n_rd=6 n_write=0 bw_util=3.71e-06
n_activity=144 dram_eff=0.08333
bk0: 6a 3234419i bk1: 0a 3234489i bk2: 0a 3234491i bk3: 0a 3234491i bk4: 0a 3234491i bk5: 0a 3234491i bk6: 0a 3234491i bk7: 0a 3234491i bk8: 0a 3234491i bk9: 0a 3234491i bk10: 0a 3234491i bk11: 0a 3234491i bk12: 0a 3234491i bk13: 0a 3234491i bk14: 0a 3234491i bk15: 0a 3234491i 
dram_util_bins: 0 0 0 0 0 0 0 0 0 0
dram_eff_bins: 0 0 0 0 0 0 0 0 0 0
mrqq: max=0 avg=0
Memory Partition 1: 
Cache L2_bank_002:
MSHR contents

Cache L2_bank_003:
MSHR contents

In Dram Latency Queue (total = 0): 
DRAM[1]: 16 bks, busW=4 BL=8 CL=12, tRRD=2 tCCD=6, tRCD=12 tRAS=28 tRP=12 tRC=40
n_cmd=3234491 n_nop=3234486 n_act=1 n_pre=0 n_req=2 n_rd=4 n_write=0 bw_util=2.473e-06
n_activity=55 dram_eff=0.1455
bk0: 4a 3234471i bk1: 0a 3234491i bk2: 0a 3234491i bk3: 0a 3234491i bk4: 0a 3234491i bk5: 0a 3234491i bk6: 0a 3234491i bk7: 0a 3234491i bk8: 0a 3234491i bk9: 0a 3234491i bk10: 0a 3234491i bk11: 0a 3234491i bk12: 0a 3234491i bk13: 0a 3234491i bk14: 0a 3234491i bk15: 0a 3234491i 
dram_util_bins: 0 0 0 0 0 0 0 0 0 0
dram_eff_bins: 0 0 0 0 0 0 0 0 0 0
mrqq: max=0 avg=0
Memory Partition 2: 
Cache L2_bank_004:
MSHR contents

Cache L2_bank_005:
MSHR contents

In Dram Latency Queue (total = 0): 
DRAM[2]: 16 bks, busW=4 BL=8 CL=12, tRRD=2 tCCD=6, tRCD=12 tRAS=28 tRP=12 tRC=40
n_cmd=3234491 n_nop=3234458 n_act=5 n_pre=0 n_req=18 n_rd=20 n_write=8 bw_util=1.731e-05
n_activity=272 dram_eff=0.2059
bk0: 4a 3234471i bk1: 4a 3234422i bk2: 0a 3234492i bk3: 0a 3234492i bk4: 0a 3234492i bk5: 4a 3234469i bk6: 0a 3234490i bk7: 0a 3234490i bk8: 0a 3234491i bk9: 4a 3234469i bk10: 0a 3234489i bk11: 0a 3234490i bk12: 0a 3234492i bk13: 4a 3234469i bk14: 0a 3234490i bk15: 0a 3234490i 
dram_util_bins: 0 0 0 0 0 0 0 0 0 0
dram_eff_bins: 0 0 0 0 0 0 0 0 0 0
mrqq: max=5 avg=4.9776e-05
Memory Partition 3: 
Cache L2_bank_006:
MSHR contents

Cache L2_bank_007:
MSHR contents

In Dram Latency Queue (total = 0): 
DRAM[3]: 16 bks, busW=4 BL=8 CL=12, tRRD=2 tCCD=6, tRCD=12 tRAS=28 tRP=12 tRC=40
n_cmd=3234491 n_nop=3234473 n_act=2 n_pre=0 n_req=12 n_rd=8 n_write=8 bw_util=9.893e-06
n_activity=157 dram_eff=0.2038
bk0: 4a 3234471i bk1: 4a 3234433i bk2: 0a 3234490i bk3: 0a 3234491i bk4: 0a 3234491i bk5: 0a 3234491i bk6: 0a 3234491i bk7: 0a 3234491i bk8: 0a 3234491i bk9: 0a 3234491i bk10: 0a 3234491i bk11: 0a 3234491i bk12: 0a 3234491i bk13: 0a 3234491i bk14: 0a 3234491i bk15: 0a 3234491i 
dram_util_bins: 0 0 0 0 0 0 0 0 0 0
dram_eff_bins: 0 0 0 0 0 0 0 0 0 0
mrqq: max=2 avg=1.54584e-05
Memory Partition 4: 
Cache L2_bank_008:
MSHR contents

Cache L2_bank_009:
MSHR contents

In Dram Latency Queue (total = 0): 
DRAM[4]: 16 bks, busW=4 BL=8 CL=12, tRRD=2 tCCD=6, tRCD=12 tRAS=28 tRP=12 tRC=40
n_cmd=3234491 n_nop=3234473 n_act=2 n_pre=0 n_req=12 n_rd=8 n_write=8 bw_util=9.893e-06
n_activity=164 dram_eff=0.1951
bk0: 4a 3234471i bk1: 4a 3234433i bk2: 0a 3234490i bk3: 0a 3234491i bk4: 0a 3234491i bk5: 0a 3234491i bk6: 0a 3234491i bk7: 0a 3234491i bk8: 0a 3234491i bk9: 0a 3234491i bk10: 0a 3234491i bk11: 0a 3234491i bk12: 0a 3234491i bk13: 0a 3234491i bk14: 0a 3234491i bk15: 0a 3234491i 
dram_util_bins: 0 0 0 0 0 0 0 0 0 0
dram_eff_bins: 0 0 0 0 0 0 0 0 0 0
mrqq: max=3 avg=1.51492e-05
Memory Partition 5: 
Cache L2_bank_010:
MSHR contents

Cache L2_bank_011:
MSHR contents

In Dram Latency Queue (total = 0): 
DRAM[5]: 16 bks, busW=4 BL=8 CL=12, tRRD=2 tCCD=6, tRCD=12 tRAS=28 tRP=12 tRC=40
n_cmd=3234491 n_nop=3234476 n_act=2 n_pre=0 n_req=10 n_rd=6 n_write=7 bw_util=8.038e-06
n_activity=138 dram_eff=0.1884
bk0: 2a 3234475i bk1: 4a 3234423i bk2: 0a 3234491i bk3: 0a 3234491i bk4: 0a 3234491i bk5: 0a 3234491i bk6: 0a 3234491i bk7: 0a 3234491i bk8: 0a 3234491i bk9: 0a 3234491i bk10: 0a 3234491i bk11: 0a 3234491i bk12: 0a 3234491i bk13: 0a 3234491i bk14: 0a 3234491i bk15: 0a 3234491i 
dram_util_bins: 0 0 0 0 0 0 0 0 0 0
dram_eff_bins: 0 0 0 0 0 0 0 0 0 0
mrqq: max=3 avg=2.22601e-05

========= L2 cache stats =========
L2_cache_bank[0]: Access = 32, Miss = 3, Miss_rate = 0.094, Pending_hits = 6, Reservation_fails = 225
L2_cache_bank[1]: Access = 0, Miss = 0, Miss_rate = -nan, Pending_hits = 0, Reservation_fails = 0
L2_cache_bank[2]: Access = 4, Miss = 2, Miss_rate = 0.500, Pending_hits = 0, Reservation_fails = 0
L2_cache_bank[3]: Access = 0, Miss = 0, Miss_rate = -nan, Pending_hits = 0, Reservation_fails = 0
L2_cache_bank[4]: Access = 4, Miss = 2, Miss_rate = 0.500, Pending_hits = 0, Reservation_fails = 0
L2_cache_bank[5]: Access = 137, Miss = 8, Miss_rate = 0.058, Pending_hits = 6, Reservation_fails = 115
L2_cache_bank[6]: Access = 30, Miss = 2, Miss_rate = 0.067, Pending_hits = 6, Reservation_fails = 204
L2_cache_bank[7]: Access = 128, Miss = 2, Miss_rate = 0.016, Pending_hits = 6, Reservation_fails = 192
L2_cache_bank[8]: Access = 30, Miss = 2, Miss_rate = 0.067, Pending_hits = 6, Reservation_fails = 190
L2_cache_bank[9]: Access = 128, Miss = 2, Miss_rate = 0.016, Pending_hits = 6, Reservation_fails = 110
L2_cache_bank[10]: Access = 15, Miss = 1, Miss_rate = 0.067, Pending_hits = 3, Reservation_fails = 98
L2_cache_bank[11]: Access = 128, Miss = 2, Miss_rate = 0.016, Pending_hits = 5, Reservation_fails = 114
L2_total_cache_accesses = 636
L2_total_cache_misses = 26
L2_total_cache_miss_rate = 0.0409
L2_total_cache_pending_hits = 44
L2_total_cache_reservation_fails = 1248
L2_total_cache_breakdown:
	L2_cache_stats_breakdown[GLOBAL_ACC_R][HIT] = 3
	L2_cache_stats_breakdown[GLOBAL_ACC_R][MISS] = 6
	L2_cache_stats_breakdown[CONST_ACC_R][HIT] = 11
	L2_cache_stats_breakdown[CONST_ACC_R][HIT_RESERVED] = 3
	L2_cache_stats_breakdown[CONST_ACC_R][MISS] = 1
	L2_cache_stats_breakdown[CONST_ACC_R][RESERVATION_FAIL] = 109
	L2_cache_stats_breakdown[GLOBAL_ACC_W][HIT] = 481
	L2_cache_stats_breakdown[GLOBAL_ACC_W][HIT_RESERVED] = 23
	L2_cache_stats_breakdown[GLOBAL_ACC_W][MISS] = 8
	L2_cache_stats_breakdown[GLOBAL_ACC_W][RESERVATION_FAIL] = 531
	L2_cache_stats_breakdown[INST_ACC_R][HIT] = 71
	L2_cache_stats_breakdown[INST_ACC_R][HIT_RESERVED] = 18
	L2_cache_stats_breakdown[INST_ACC_R][MISS] = 11
	L2_cache_stats_breakdown[INST_ACC_R][RESERVATION_FAIL] = 608
L2_cache_data_port_util = 0.000
L2_cache_fill_port_util = 0.000

icnt_total_pkts_mem_to_simt=1102
icnt_total_pkts_simt_to_mem=1148
LD_mem_lat_dist  0 0 0 0 0 0 0 0 0 0 0 0 0 0 0 0 0 0 0 0 0 0 0 0 0 0 0
ST_mem_lat_dist  0 0 0 0 0 0 0 0 0 0 0 0 0 0 0 0 0 0 0 0 0 0 0 0 0 0 0
----------------------------Interconnect-DETAILS--------------------------------
Class 0:
Packet latency average = 13.483
	minimum = 6
	maximum = 102
Network latency average = 13.4792
	minimum = 6
	maximum = 102
Slowest packet = 778
Flit latency average = 14.951
	minimum = 6
	maximum = 101
Slowest flit = 1505
Fragmentation average = 0
	minimum = 0
	maximum = 0
Injected packet rate average = 1.60865e-05
	minimum = 0 (at node 16)
	maximum = 5.51146e-05 (at node 20)
Accepted packet rate average = 1.60865e-05
	minimum = 0 (at node 16)
	maximum = 5.51146e-05 (at node 20)
Injected flit rate average = 2.4861e-05
	minimum = 0 (at node 16)
	maximum = 6.49859e-05 (at node 20)
Accepted flit rate average= 2.4861e-05
	minimum = 0 (at node 16)
	maximum = 0.000107761 (at node 20)
Injected packet length average = 1.54545
Accepted packet length average = 1.54545
Total in-flight flits = 0 (0 measured)
====== Overall Traffic Statistics ======
====== Traffic class 0 ======
Packet latency average = 13.1494 (2 samples)
	minimum = 6 (2 samples)
	maximum = 80 (2 samples)
Network latency average = 12.5427 (2 samples)
	minimum = 6 (2 samples)
	maximum = 80 (2 samples)
Flit latency average = 12.8594 (2 samples)
	minimum = 6 (2 samples)
	maximum = 79 (2 samples)
Fragmentation average = 0 (2 samples)
	minimum = 0 (2 samples)
	maximum = 0 (2 samples)
Injected packet rate average = 1.92018e-05 (2 samples)
	minimum = 0 (2 samples)
	maximum = 5.59037e-05 (2 samples)
Accepted packet rate average = 1.92018e-05 (2 samples)
	minimum = 0 (2 samples)
	maximum = 5.59037e-05 (2 samples)
Injected flit rate average = 3.39378e-05 (2 samples)
	minimum = 0 (2 samples)
	maximum = 9.32353e-05 (2 samples)
Accepted flit rate average = 3.39378e-05 (2 samples)
	minimum = 0 (2 samples)
	maximum = 0.000108144 (2 samples)
Injected packet size average = 1.76742 (2 samples)
Accepted packet size average = 1.76742 (2 samples)
Hops average = 1 (2 samples)
----------------------------END-of-Interconnect-DETAILS-------------------------


gpgpu_simulation_time = 0 days, 0 hrs, 19 min, 23 sec (1163 sec)
gpgpu_simulation_rate = 6218 (inst/sec)
gpgpu_simulation_rate = 2106 (cycle/sec)
GPU: 11 queen = 2680  time = 1162818.375000 msec
