

        *** GPGPU-Sim Simulator Version 3.2.2  [build 0] ***


GPGPU-Sim PTX: simulation mode 0 (can change with PTX_SIM_MODE_FUNC environment variable:
               1=functional simulation only, 0=detailed performance simulator)
GPGPU-Sim: Configuration options:

-network_mode                           1 # Interconnection network mode
-inter_config_file   config_fermi_islip.icnt # Interconnection network config file
-gpgpu_ptx_use_cuobjdump                    1 # Use cuobjdump to extract ptx and sass from binaries
-gpgpu_experimental_lib_support                    0 # Try to extract code from cuda libraries [Broken because of unknown cudaGetExportTable]
-gpgpu_ptx_convert_to_ptxplus                    0 # Convert SASS (native ISA) to ptxplus and run ptxplus
-gpgpu_ptx_force_max_capability                   20 # Force maximum compute capability
-gpgpu_ptx_inst_debug_to_file                    0 # Dump executed instructions' debug information to file
-gpgpu_ptx_inst_debug_file       inst_debug.txt # Executed instructions' debug output file
-gpgpu_ptx_inst_debug_thread_uid                    1 # Thread UID for executed instructions' debug output
-gpgpu_simd_model                       1 # 1 = post-dominator
-gpgpu_shader_core_pipeline              1536:32 # shader core pipeline config, i.e., {<nthread>:<warpsize>}
-gpgpu_tex_cache:l1  4:128:24,L:R:m:N:L,F:128:4,128:2 # per-shader L1 texture cache  (READ-ONLY) config  {<nsets>:<bsize>:<assoc>,<rep>:<wr>:<alloc>:<wr_alloc>,<mshr>:<N>:<merge>,<mq>:<rf>}
-gpgpu_const_cache:l1 64:64:2,L:R:f:N:L,A:2:32,4 # per-shader L1 constant memory cache  (READ-ONLY) config  {<nsets>:<bsize>:<assoc>,<rep>:<wr>:<alloc>:<wr_alloc>,<mshr>:<N>:<merge>,<mq>} 
-gpgpu_cache:il1     4:128:4,L:R:f:N:L,A:2:32,4 # shader L1 instruction cache config  {<nsets>:<bsize>:<assoc>,<rep>:<wr>:<alloc>:<wr_alloc>,<mshr>:<N>:<merge>,<mq>} 
-gpgpu_cache:dl1     32:128:4,L:L:m:N:H,A:32:8,8 # per-shader L1 data cache config  {<nsets>:<bsize>:<assoc>,<rep>:<wr>:<alloc>:<wr_alloc>,<mshr>:<N>:<merge>,<mq> | none}
-gpgpu_cache:dl1PrefL1                 none # per-shader L1 data cache config  {<nsets>:<bsize>:<assoc>,<rep>:<wr>:<alloc>:<wr_alloc>,<mshr>:<N>:<merge>,<mq> | none}
-gpgpu_cache:dl1PreShared                 none # per-shader L1 data cache config  {<nsets>:<bsize>:<assoc>,<rep>:<wr>:<alloc>:<wr_alloc>,<mshr>:<N>:<merge>,<mq> | none}
-gmem_skip_L1D                          0 # global memory access skip L1D cache (implements -Xptxas -dlcm=cg, default=no skip)
-gpgpu_perfect_mem                      0 # enable perfect memory mode (no cache miss)
-n_regfile_gating_group                    4 # group of lanes that should be read/written together)
-gpgpu_clock_gated_reg_file                    0 # enable clock gated reg file for power calculations
-gpgpu_clock_gated_lanes                    0 # enable clock gated lanes for power calculations
-gpgpu_shader_registers                32768 # Number of registers per shader core. Limits number of concurrent CTAs. (default 8192)
-gpgpu_shader_cta                       8 # Maximum number of concurrent CTAs in shader (default 8)
-gpgpu_num_cta_barriers                   16 # Maximum number of named barriers per CTA (default 16)
-gpgpu_n_clusters                      15 # number of processing clusters
-gpgpu_n_cores_per_cluster                    1 # number of simd cores per cluster
-gpgpu_n_cluster_ejection_buffer_size                    8 # number of packets in ejection buffer
-gpgpu_n_ldst_response_buffer_size                    2 # number of response packets in ld/st unit ejection buffer
-gpgpu_shmem_size                   16384 # Size of shared memory per shader core (default 16kB)
-gpgpu_shmem_size                   49152 # Size of shared memory per shader core (default 16kB)
-gpgpu_shmem_size_PrefL1                16384 # Size of shared memory per shader core (default 16kB)
-gpgpu_shmem_size_PrefShared                16384 # Size of shared memory per shader core (default 16kB)
-gpgpu_shmem_num_banks                   32 # Number of banks in the shared memory in each shader core (default 16)
-gpgpu_shmem_limited_broadcast                    0 # Limit shared memory to do one broadcast per cycle (default on)
-gpgpu_shmem_warp_parts                    1 # Number of portions a warp is divided into for shared memory bank conflict check 
-gpgpu_warpdistro_shader                   -1 # Specify which shader core to collect the warp size distribution from
-gpgpu_warp_issue_shader                    0 # Specify which shader core to collect the warp issue distribution from
-gpgpu_local_mem_map                    1 # Mapping from local memory space address to simulated GPU physical address space (default = enabled)
-gpgpu_num_reg_banks                   16 # Number of register banks (default = 8)
-gpgpu_reg_bank_use_warp_id                    0 # Use warp ID in mapping registers to banks (default = off)
-gpgpu_operand_collector_num_units_sp                    6 # number of collector units (default = 4)
-gpgpu_operand_collector_num_units_sfu                    8 # number of collector units (default = 4)
-gpgpu_operand_collector_num_units_mem                    2 # number of collector units (default = 2)
-gpgpu_operand_collector_num_units_gen                    0 # number of collector units (default = 0)
-gpgpu_operand_collector_num_in_ports_sp                    2 # number of collector unit in ports (default = 1)
-gpgpu_operand_collector_num_in_ports_sfu                    1 # number of collector unit in ports (default = 1)
-gpgpu_operand_collector_num_in_ports_mem                    1 # number of collector unit in ports (default = 1)
-gpgpu_operand_collector_num_in_ports_gen                    0 # number of collector unit in ports (default = 0)
-gpgpu_operand_collector_num_out_ports_sp                    2 # number of collector unit in ports (default = 1)
-gpgpu_operand_collector_num_out_ports_sfu                    1 # number of collector unit in ports (default = 1)
-gpgpu_operand_collector_num_out_ports_mem                    1 # number of collector unit in ports (default = 1)
-gpgpu_operand_collector_num_out_ports_gen                    0 # number of collector unit in ports (default = 0)
-gpgpu_coalesce_arch                   13 # Coalescing arch (default = 13, anything else is off for now)
-gpgpu_num_sched_per_core                    1 # Number of warp schedulers per core
-gpgpu_max_insn_issue_per_warp                    1 # Max number of instructions that can be issued per warp in one cycle by scheduler
-gpgpu_simt_core_sim_order                    1 # Select the simulation order of cores in a cluster (0=Fix, 1=Round-Robin)
-gpgpu_pipeline_widths        2,1,1,2,1,1,2 # Pipeline widths ID_OC_SP,ID_OC_SFU,ID_OC_MEM,OC_EX_SP,OC_EX_SFU,OC_EX_MEM,EX_WB
-gpgpu_num_sp_units                     2 # Number of SP units (default=1)
-gpgpu_num_sfu_units                    1 # Number of SF units (default=1)
-gpgpu_num_mem_units                    1 # Number if ldst units (default=1) WARNING: not hooked up to anything
-gpgpu_scheduler                      gto # Scheduler configuration: < lrr | gto | two_level_active > If two_level_active:<num_active_warps>:<inner_prioritization>:<outer_prioritization>For complete list of prioritization values see shader.h enum scheduler_prioritization_typeDefault: gto
-gpgpu_dram_scheduler                    1 # 0 = fifo, 1 = FR-FCFS (defaul)
-gpgpu_dram_partition_queues              8:8:8:8 # i2$:$2d:d2$:$2i
-l2_ideal                               0 # Use a ideal L2 cache that always hit
-gpgpu_cache:dl2     64:128:8,L:B:m:W:L,A:32:4,4:0,32 # unified banked L2 data cache config  {<nsets>:<bsize>:<assoc>,<rep>:<wr>:<alloc>:<wr_alloc>,<mshr>:<N>:<merge>,<mq>}
-gpgpu_cache:dl2_texture_only                    0 # L2 cache used for texture only
-gpgpu_n_mem                            6 # number of memory modules (e.g. memory controllers) in gpu
-gpgpu_n_sub_partition_per_mchannel                    2 # number of memory subpartition in each memory module
-gpgpu_n_mem_per_ctrlr                    2 # number of memory chips per memory controller
-gpgpu_memlatency_stat                   14 # track and display latency statistics 0x2 enables MC, 0x4 enables queue logs
-gpgpu_frfcfs_dram_sched_queue_size                   16 # 0 = unlimited (default); # entries per chip
-gpgpu_dram_return_queue_size                  116 # 0 = unlimited (default); # entries per chip
-gpgpu_dram_buswidth                    4 # default = 4 bytes (8 bytes per cycle at DDR)
-gpgpu_dram_burst_length                    8 # Burst length of each DRAM request (default = 4 data bus cycle)
-dram_data_command_freq_ratio                    4 # Frequency ratio between DRAM data bus and command bus (default = 2 times, i.e. DDR)
-gpgpu_dram_timing_opt nbk=16:CCD=2:RRD=6:RCD=12:RAS=28:RP=12:RC=40: CL=12:WL=4:CDLR=5:WR=12:nbkgrp=4:CCDL=3:RTPL=2 # DRAM timing parameters = {nbk:tCCD:tRRD:tRCD:tRAS:tRP:tRC:CL:WL:tCDLR:tWR:nbkgrp:tCCDL:tRTPL}
-rop_latency                          120 # ROP queue latency (default 85)
-dram_latency                         100 # DRAM latency (default 30)
-gpgpu_mem_addr_mapping dramid@8;00000000.00000000.00000000.00000000.0000RRRR.RRRRRRRR.BBBCCCCB.CCSSSSSS # mapping memory address to dram model {dramid@<start bit>;<memory address map>}
-gpgpu_mem_addr_test                    0 # run sweep test to check address mapping for aliased address
-gpgpu_mem_address_mask                    1 # 0 = old addressing mask, 1 = new addressing mask, 2 = new add. mask + flipped bank sel and chip sel bits
-gpuwattch_xml_file  gpuwattch_gtx480.xml # GPUWattch XML file
-power_simulation_enabled                    1 # Turn on power simulator (1=On, 0=Off)
-power_per_cycle_dump                    0 # Dump detailed power output each cycle
-power_trace_enabled                    0 # produce a file for the power trace (1=On, 0=Off)
-power_trace_zlevel                     6 # Compression level of the power trace output log (0=no comp, 9=highest)
-steady_power_levels_enabled                    0 # produce a file for the steady power levels (1=On, 0=Off)
-steady_state_definition                  8:4 # allowed deviation:number of samples
-gpgpu_max_cycle                        0 # terminates gpu simulation early (0 = no limit)
-gpgpu_max_insn                         0 # terminates gpu simulation early (0 = no limit)
-gpgpu_max_cta                          0 # terminates gpu simulation early (0 = no limit)
-gpgpu_runtime_stat                   500 # display runtime statistics such as dram utilization {<freq>:<flag>}
-liveness_message_freq                    1 # Minimum number of seconds between simulation liveness messages (0 = always print)
-gpgpu_flush_l1_cache                    0 # Flush L1 cache at the end of each kernel call
-gpgpu_flush_l2_cache                    0 # Flush L2 cache at the end of each kernel call
-gpgpu_deadlock_detect                    1 # Stop the simulation at deadlock (1=on (default), 0=off)
-gpgpu_ptx_instruction_classification                    0 # if enabled will classify ptx instruction types per kernel (Max 255 kernels now)
-gpgpu_ptx_sim_mode                     0 # Select between Performance (default) or Functional simulation (1)
-gpgpu_clock_domains 700.0:700.0:700.0:924.0 # Clock Domain Frequencies in MhZ {<Core Clock>:<ICNT Clock>:<L2 Clock>:<DRAM Clock>}
-gpgpu_max_concurrent_kernel                    8 # maximum kernels that can run concurrently on GPU
-gpgpu_cflog_interval                    0 # Interval between each snapshot in control flow logger
-visualizer_enabled                     0 # Turn on visualizer output (1=On, 0=Off)
-visualizer_outputfile                 NULL # Specifies the output log file for visualizer
-visualizer_zlevel                      6 # Compression level of the visualizer output log (0=no comp, 9=highest)
-trace_enabled                          0 # Turn on traces
-trace_components                    none # comma seperated list of traces to enable. Complete list found in trace_streams.tup. Default none
-trace_sampling_core                    0 # The core which is printed using CORE_DPRINTF. Default 0
-trace_sampling_memory_partition                   -1 # The memory partition which is printed using MEMPART_DPRINTF. Default -1 (i.e. all)
-enable_ptx_file_line_stats                    1 # Turn on PTX source line statistic profiling. (1 = On)
-ptx_line_stats_filename gpgpu_inst_stats.txt # Output file for PTX source line statistics.
-save_embedded_ptx                      0 # saves ptx files embedded in binary as <n>.ptx
-keep                                   0 # keep intermediate files created by GPGPU-Sim when interfacing with external programs
-gpgpu_ptx_save_converted_ptxplus                    0 # Saved converted ptxplus to a file
-ptx_opcode_latency_int         4,13,4,5,145 # Opcode latencies for integers <ADD,MAX,MUL,MAD,DIV>Default 1,1,19,25,145
-ptx_opcode_latency_fp          4,13,4,5,39 # Opcode latencies for single precision floating points <ADD,MAX,MUL,MAD,DIV>Default 1,1,1,1,30
-ptx_opcode_latency_dp         8,19,8,8,330 # Opcode latencies for double precision floating points <ADD,MAX,MUL,MAD,DIV>Default 8,8,8,8,335
-ptx_opcode_initiation_int            1,2,2,1,8 # Opcode initiation intervals for integers <ADD,MAX,MUL,MAD,DIV>Default 1,1,4,4,32
-ptx_opcode_initiation_fp            1,2,1,1,4 # Opcode initiation intervals for single precision floating points <ADD,MAX,MUL,MAD,DIV>Default 1,1,1,1,5
-ptx_opcode_initiation_dp         8,16,8,8,130 # Opcode initiation intervals for double precision floating points <ADD,MAX,MUL,MAD,DIV>Default 8,8,8,8,130
DRAM Timing Options:
nbk                                    16 # number of banks
CCD                                     2 # column to column delay
RRD                                     6 # minimal delay between activation of rows in different banks
RCD                                    12 # row to column delay
RAS                                    28 # time needed to activate row
RP                                     12 # time needed to precharge (deactivate) row
RC                                     40 # row cycle time
CDLR                                    5 # switching from write to read (changes tWTR)
WR                                     12 # last data-in to row precharge
CL                                     12 # CAS latency
WL                                      4 # Write latency
nbkgrp                                  4 # number of bank groups
CCDL                                    3 # column to column delay between accesses to different bank groups
RTPL                                    2 # read to precharge delay between accesses to different bank groups
Total number of memory sub partition = 12
addr_dec_mask[CHIP]  = 0000000000000000 	high:64 low:0
addr_dec_mask[BK]    = 000000000000e100 	high:16 low:8
addr_dec_mask[ROW]   = 000000000fff0000 	high:28 low:16
addr_dec_mask[COL]   = 0000000000001eff 	high:13 low:0
addr_dec_mask[BURST] = 000000000000003f 	high:6 low:0
sub_partition_id_mask = 0000000000000100
GPGPU-Sim uArch: clock freqs: 700000000.000000:700000000.000000:700000000.000000:924000000.000000
GPGPU-Sim uArch: clock periods: 0.00000000142857142857:0.00000000142857142857:0.00000000142857142857:0.00000000108225108225
*** Initializing Memory Statistics ***
GPGPU-Sim uArch: interconnect node map (shaderID+MemID to icntID)
GPGPU-Sim uArch: Memory nodes ID start from index: 15
GPGPU-Sim uArch:    0   1   2   3   4
GPGPU-Sim uArch:    5   6   7   8   9
GPGPU-Sim uArch:   10  11  12  13  14
GPGPU-Sim uArch:   15  16  17  18  19
GPGPU-Sim uArch:   20  21  22  23  24
GPGPU-Sim uArch:   25  26
GPGPU-Sim uArch: interconnect node reverse map (icntID to shaderID+MemID)
GPGPU-Sim uArch: Memory nodes start from ID: 15
GPGPU-Sim uArch:    0   1   2   3   4
GPGPU-Sim uArch:    5   6   7   8   9
GPGPU-Sim uArch:   10  11  12  13  14
GPGPU-Sim uArch:   15  16  17  18  19
GPGPU-Sim uArch:   20  21  22  23  24
GPGPU-Sim uArch:   25  26
59223c5836e436fa179bac05233b3051  /home/kishore/project_source/gpu_class_proj/gpgpusim-benchmarks-master/bin/release/NQU
GPGPU-Sim uArch: performance model initialization complete.
GPGPU-Sim PTX: __cudaRegisterFatBinary, fat_cubin_handle = 1, filename=nqueen.cu
self exe links to: /home/kishore/project_source/gpu_class_proj/gpgpusim-benchmarks-master/bin/release/NQU
Running md5sum using "md5sum /home/kishore/project_source/gpu_class_proj/gpgpusim-benchmarks-master/bin/release/NQU "
Running cuobjdump using "$CUDA_INSTALL_PATH/bin/cuobjdump -ptx -elf -sass /home/kishore/project_source/gpu_class_proj/gpgpusim-benchmarks-master/bin/release/NQU > _cuobjdump_complete_output_FHgEqO"
Parsing file _cuobjdump_complete_output_FHgEqO
######### cuobjdump parser ########
## Adding new section PTX
Adding ptx filename: _cuobjdump_1.ptx
Adding arch: sm_10
Adding identifier: nqueen.cu
## Adding new section ELF
Adding arch: sm_10
Adding identifier: nqueen.cu
## Adding new section PTX
Adding ptx filename: _cuobjdump_2.ptx
Adding arch: sm_20
Adding identifier: nqueen.cu
## Adding new section ELF
Adding arch: sm_20
Adding identifier: nqueen.cu
Done parsing!!!
GPGPU-Sim PTX: __cudaRegisterFunction _Z24solve_nqueen_cuda_kerneliiPjS_S_S_i : hostFun 0x0x403b20, fat_cubin_handle = 1
GPGPU-Sim PTX: allocating shared region for "__cuda___cuda_local_var_65604_39_non_const_sum44" from 0x0 to 0x180 (shared memory space)
GPGPU-Sim PTX: allocating shared region for "__cuda___cuda_local_var_65599_39_non_const_mask428" from 0x180 to 0x1080 (shared memory space)
GPGPU-Sim PTX: allocating shared region for "__cuda___cuda_local_var_65601_39_non_const_r_mask4268" from 0x1080 to 0x1f80 (shared memory space)
GPGPU-Sim PTX: allocating shared region for "__cuda___cuda_local_var_65600_39_non_const_l_mask8108" from 0x1f80 to 0x2e80 (shared memory space)
GPGPU-Sim PTX: allocating shared region for "__cuda___cuda_local_var_65602_39_non_const_m11948" from 0x2e80 to 0x3d80 (shared memory space)
GPGPU-Sim PTX: instruction assembly for function '_Z24solve_nqueen_cuda_kerneliiPjS_S_S_i'...   done.
GPGPU-Sim PTX: finding reconvergence points for '_Z24solve_nqueen_cuda_kerneliiPjS_S_S_i'...
GPGPU-Sim PTX: Finding dominators for '_Z24solve_nqueen_cuda_kerneliiPjS_S_S_i'...
GPGPU-Sim PTX: Finding immediate dominators for '_Z24solve_nqueen_cuda_kerneliiPjS_S_S_i'...
GPGPU-Sim PTX: Finding postdominators for '_Z24solve_nqueen_cuda_kerneliiPjS_S_S_i'...
GPGPU-Sim PTX: Finding immediate postdominators for '_Z24solve_nqueen_cuda_kerneliiPjS_S_S_i'...
GPGPU-Sim PTX: pre-decoding instructions for '_Z24solve_nqueen_cuda_kerneliiPjS_S_S_i'...
GPGPU-Sim PTX: reconvergence points for _Z24solve_nqueen_cuda_kerneliiPjS_S_S_i...
GPGPU-Sim PTX:  1 (potential) branch divergence @  PC=0x058 (_1.ptx:81) @%p1 bra $Lt_0_10754;
GPGPU-Sim PTX:    immediate post dominator      @  PC=0x328 (_1.ptx:198) bar.sync 0;
GPGPU-Sim PTX:  2 (potential) branch divergence @  PC=0x198 (_1.ptx:127) @%p2 bra $Lt_0_12034;
GPGPU-Sim PTX:    immediate post dominator      @  PC=0x2f0 (_1.ptx:186) mov.u32 %r37, 0;
GPGPU-Sim PTX:  3 (potential) branch divergence @  PC=0x1b0 (_1.ptx:131) bra.uni $Lt_0_12290;
GPGPU-Sim PTX:    immediate post dominator      @  PC=0x2f0 (_1.ptx:186) mov.u32 %r37, 0;
GPGPU-Sim PTX:  4 (potential) branch divergence @  PC=0x1f8 (_1.ptx:143) @%p3 bra $Lt_0_12546;
GPGPU-Sim PTX:    immediate post dominator      @  PC=0x2f0 (_1.ptx:186) mov.u32 %r37, 0;
GPGPU-Sim PTX:  5 (potential) branch divergence @  PC=0x218 (_1.ptx:147) @%p4 bra $Lt_0_13058;
GPGPU-Sim PTX:    immediate post dominator      @  PC=0x2f0 (_1.ptx:186) mov.u32 %r37, 0;
GPGPU-Sim PTX:  6 (potential) branch divergence @  PC=0x238 (_1.ptx:153) bra.uni $Lt_0_12290;
GPGPU-Sim PTX:    immediate post dominator      @  PC=0x2f0 (_1.ptx:186) mov.u32 %r37, 0;
GPGPU-Sim PTX:  7 (potential) branch divergence @  PC=0x2d8 (_1.ptx:179) bra.uni $Lt_0_12290;
GPGPU-Sim PTX:    immediate post dominator      @  PC=0x2f0 (_1.ptx:186) mov.u32 %r37, 0;
GPGPU-Sim PTX:  8 (potential) branch divergence @  PC=0x300 (_1.ptx:188) @%p5 bra $Lt_0_11522;
GPGPU-Sim PTX:    immediate post dominator      @  PC=0x308 (_1.ptx:190) st.shared.u32 [%rd4+0], %r16;
GPGPU-Sim PTX:  9 (potential) branch divergence @  PC=0x310 (_1.ptx:191) bra.uni $Lt_0_10498;
GPGPU-Sim PTX:    immediate post dominator      @  PC=0x328 (_1.ptx:198) bar.sync 0;
GPGPU-Sim PTX: 10 (potential) branch divergence @  PC=0x340 (_1.ptx:201) @!%p6 bra $Lt_0_13570;
GPGPU-Sim PTX:    immediate post dominator      @  PC=0x368 (_1.ptx:208) bar.sync 0;
GPGPU-Sim PTX: 11 (potential) branch divergence @  PC=0x370 (_1.ptx:209) @!%p6 bra $Lt_0_14082;
GPGPU-Sim PTX:    immediate post dominator      @  PC=0x398 (_1.ptx:216) bar.sync 0;
GPGPU-Sim PTX: 12 (potential) branch divergence @  PC=0x3b0 (_1.ptx:219) @%p7 bra $Lt_0_14594;
GPGPU-Sim PTX:    immediate post dominator      @  PC=0x3d8 (_1.ptx:226) bar.sync 0;
GPGPU-Sim PTX: 13 (potential) branch divergence @  PC=0x3f0 (_1.ptx:229) @%p8 bra $Lt_0_15106;
GPGPU-Sim PTX:    immediate post dominator      @  PC=0x418 (_1.ptx:236) bar.sync 0;
GPGPU-Sim PTX: 14 (potential) branch divergence @  PC=0x430 (_1.ptx:239) @%p9 bra $Lt_0_15618;
GPGPU-Sim PTX:    immediate post dominator      @  PC=0x458 (_1.ptx:246) bar.sync 0;
GPGPU-Sim PTX: 15 (potential) branch divergence @  PC=0x470 (_1.ptx:249) @%p10 bra $Lt_0_16130;
GPGPU-Sim PTX:    immediate post dominator      @  PC=0x498 (_1.ptx:256) bar.sync 0;
GPGPU-Sim PTX: 16 (potential) branch divergence @  PC=0x4b0 (_1.ptx:259) @%p11 bra $Lt_0_16642;
GPGPU-Sim PTX:    immediate post dominator      @  PC=0x4d8 (_1.ptx:266) bar.sync 0;
GPGPU-Sim PTX: 17 (potential) branch divergence @  PC=0x4f0 (_1.ptx:269) @%p12 bra $Lt_0_17154;
GPGPU-Sim PTX:    immediate post dominator      @  PC=0x528 (_1.ptx:279) exit;
GPGPU-Sim PTX: ... end of reconvergence points for _Z24solve_nqueen_cuda_kerneliiPjS_S_S_i
GPGPU-Sim PTX: ... done pre-decoding instructions for '_Z24solve_nqueen_cuda_kerneliiPjS_S_S_i'.
GPGPU-Sim PTX: finished parsing EMBEDDED .ptx file _1.ptx
Adding _cuobjdump_2.ptx with cubin handle 1
GPGPU-Sim PTX: extracting embedded .ptx to temporary file "_ptx_eELRQk"
Running: cat _ptx_eELRQk | sed 's/.version 1.5/.version 1.4/' | sed 's/, texmode_independent//' | sed 's/\(\.extern \.const\[1\] .b8 \w\+\)\[\]/\1\[1\]/' | sed 's/const\[.\]/const\[0\]/g' > _ptx2_F4M6gR
GPGPU-Sim PTX: generating ptxinfo using "$CUDA_INSTALL_PATH/bin/ptxas --gpu-name=sm_20 -v _ptx2_F4M6gR --output-file  /dev/null 2> _ptx_eELRQkinfo"
GPGPU-Sim PTX: Kernel '_Z24solve_nqueen_cuda_kerneliiPjS_S_S_i' : regs=15, lmem=0, smem=15744, cmem=76
GPGPU-Sim PTX: removing ptxinfo using "rm -f _ptx_eELRQk _ptx2_F4M6gR _ptx_eELRQkinfo"
GPGPU-Sim PTX: loading globals with explicit initializers... 
GPGPU-Sim PTX: finished loading globals (0 bytes total).
GPGPU-Sim PTX: loading constants with explicit initializers...  done.
Usage: ../bin/release/NQU [-c|-g] n steps
  -c: CPU only
  -g: GPU only
  n: n-queen
  steps: step for GPU
Default to 8 queen
CUDA initialized.
GPGPU-Sim: synchronize waiting for inactive GPU simulation
GPGPU-Sim API: Stream Manager State
GPGPU-Sim: detected inactive GPU simulation thread
CPU: 11 queen = 2680  time = 1.527000 msec
GPGPU-Sim: synchronize waiting for inactive GPU simulation
GPGPU-Sim API: Stream Manager State
GPGPU-Sim: detected inactive GPU simulation thread
256 96

GPGPU-Sim PTX: cudaLaunch for 0x0x403b20 (mode=performance simulation) on stream 0
GPGPU-Sim PTX: pushing kernel '_Z24solve_nqueen_cuda_kerneliiPjS_S_S_i' to stream 0, gridDim= (256,1,1) blockDim = (96,1,1) 
kernel '_Z24solve_nqueen_cuda_kerneliiPjS_S_S_i' transfer to GPU hardware scheduler
GPGPU-Sim uArch: Shader 1 bind to kernel 1 '_Z24solve_nqueen_cuda_kerneliiPjS_S_S_i'
GPGPU-Sim uArch: CTA/core = 3, limited by: shmem
GPGPU-Sim uArch: core:  1, cta: 0 initialized @(1,0)
GPGPU-Sim uArch: Shader 2 bind to kernel 1 '_Z24solve_nqueen_cuda_kerneliiPjS_S_S_i'
GPGPU-Sim uArch: core:  2, cta: 0 initialized @(1,0)
GPGPU-Sim uArch: Shader 3 bind to kernel 1 '_Z24solve_nqueen_cuda_kerneliiPjS_S_S_i'
GPGPU-Sim uArch: core:  3, cta: 0 initialized @(1,0)
GPGPU-Sim uArch: Shader 4 bind to kernel 1 '_Z24solve_nqueen_cuda_kerneliiPjS_S_S_i'
GPGPU-Sim uArch: core:  4, cta: 0 initialized @(1,0)
GPGPU-Sim uArch: Shader 5 bind to kernel 1 '_Z24solve_nqueen_cuda_kerneliiPjS_S_S_i'
GPGPU-Sim uArch: core:  5, cta: 0 initialized @(1,0)
GPGPU-Sim uArch: Shader 6 bind to kernel 1 '_Z24solve_nqueen_cuda_kerneliiPjS_S_S_i'
GPGPU-Sim uArch: core:  6, cta: 0 initialized @(1,0)
GPGPU-Sim uArch: Shader 7 bind to kernel 1 '_Z24solve_nqueen_cuda_kerneliiPjS_S_S_i'
GPGPU-Sim uArch: core:  7, cta: 0 initialized @(1,0)
GPGPU-Sim uArch: Shader 8 bind to kernel 1 '_Z24solve_nqueen_cuda_kerneliiPjS_S_S_i'
GPGPU-Sim uArch: core:  8, cta: 0 initialized @(1,0)
GPGPU-Sim uArch: Shader 9 bind to kernel 1 '_Z24solve_nqueen_cuda_kerneliiPjS_S_S_i'
GPGPU-Sim uArch: core:  9, cta: 0 initialized @(1,0)
GPGPU-Sim uArch: Shader 10 bind to kernel 1 '_Z24solve_nqueen_cuda_kerneliiPjS_S_S_i'
GPGPU-Sim uArch: core: 10, cta: 0 initialized @(1,0)
GPGPU-Sim uArch: Shader 11 bind to kernel 1 '_Z24solve_nqueen_cuda_kerneliiPjS_S_S_i'
GPGPU-Sim uArch: core: 11, cta: 0 initialized @(1,0)
GPGPU-Sim uArch: Shader 12 bind to kernel 1 '_Z24solve_nqueen_cuda_kerneliiPjS_S_S_i'
GPGPU-Sim uArch: core: 12, cta: 0 initialized @(1,0)
GPGPU-Sim uArch: Shader 13 bind to kernel 1 '_Z24solve_nqueen_cuda_kerneliiPjS_S_S_i'
GPGPU-Sim uArch: core: 13, cta: 0 initialized @(1,0)
GPGPU-Sim uArch: Shader 14 bind to kernel 1 '_Z24solve_nqueen_cuda_kerneliiPjS_S_S_i'
GPGPU-Sim uArch: core: 14, cta: 0 initialized @(1,0)
GPGPU-Sim uArch: Shader 0 bind to kernel 1 '_Z24solve_nqueen_cuda_kerneliiPjS_S_S_i'
GPGPU-Sim uArch: core:  0, cta: 0 initialized @(1,0)
GPGPU-Sim uArch: core:  1, cta: 1 initialized @(2,0)
GPGPU-Sim uArch: core:  2, cta: 1 initialized @(2,0)
GPGPU-Sim uArch: core:  3, cta: 1 initialized @(2,0)
GPGPU-Sim uArch: core:  4, cta: 1 initialized @(2,0)
GPGPU-Sim uArch: core:  5, cta: 1 initialized @(2,0)
GPGPU-Sim uArch: core:  6, cta: 1 initialized @(2,0)
GPGPU-Sim uArch: core:  7, cta: 1 initialized @(2,0)
GPGPU-Sim uArch: core:  8, cta: 1 initialized @(2,0)
GPGPU-Sim uArch: core:  9, cta: 1 initialized @(2,0)
GPGPU-Sim uArch: core: 10, cta: 1 initialized @(2,0)
GPGPU-Sim uArch: core: 11, cta: 1 initialized @(2,0)
GPGPU-Sim uArch: core: 12, cta: 1 initialized @(2,0)
GPGPU-Sim uArch: core: 13, cta: 1 initialized @(2,0)
GPGPU-Sim uArch: core: 14, cta: 1 initialized @(2,0)
GPGPU-Sim uArch: core:  0, cta: 1 initialized @(2,0)
GPGPU-Sim uArch: core:  1, cta: 2 initialized @(3,0)
GPGPU-Sim uArch: core:  2, cta: 2 initialized @(3,0)
GPGPU-Sim uArch: core:  3, cta: 2 initialized @(3,0)
GPGPU-Sim uArch: core:  4, cta: 2 initialized @(3,0)
GPGPU-Sim uArch: core:  5, cta: 2 initialized @(3,0)
GPGPU-Sim uArch: core:  6, cta: 2 initialized @(3,0)
GPGPU-Sim uArch: core:  7, cta: 2 initialized @(3,0)
GPGPU-Sim uArch: core:  8, cta: 2 initialized @(3,0)
GPGPU-Sim uArch: core:  9, cta: 2 initialized @(3,0)
GPGPU-Sim uArch: core: 10, cta: 2 initialized @(3,0)
GPGPU-Sim uArch: core: 11, cta: 2 initialized @(3,0)
GPGPU-Sim uArch: core: 12, cta: 2 initialized @(3,0)
GPGPU-Sim uArch: core: 13, cta: 2 initialized @(3,0)
GPGPU-Sim uArch: core: 14, cta: 2 initialized @(3,0)
GPGPU-Sim uArch: core:  0, cta: 2 initialized @(3,0)
GPGPU-Sim uArch: cycles simulated: 500  inst.: 38880 (ipc=77.8) sim_rate=38880 (inst/sec) elapsed = 0:0:00:01 / Wed May 13 10:18:03 2015
GPGPU-Sim uArch: cycles simulated: 1000  inst.: 84383 (ipc=84.4) sim_rate=42191 (inst/sec) elapsed = 0:0:00:02 / Wed May 13 10:18:04 2015
GPGPU-Sim PTX: 100000 instructions simulated : ctaid=(30,0,0) tid=(81,0,0)
GPGPU-Sim uArch: cycles simulated: 1500  inst.: 131084 (ipc=87.4) sim_rate=43694 (inst/sec) elapsed = 0:0:00:03 / Wed May 13 10:18:05 2015
GPGPU-Sim PTX: 200000 instructions simulated : ctaid=(24,0,0) tid=(22,0,0)
GPGPU-Sim uArch: cycles simulated: 2000  inst.: 194894 (ipc=97.4) sim_rate=48723 (inst/sec) elapsed = 0:0:00:04 / Wed May 13 10:18:06 2015
GPGPU-Sim uArch: Shader 1 finished CTA #1 (2483,0), 2 CTAs running
GPGPU-Sim uArch: core:  1, cta: 1 initialized @(2484,0)
GPGPU-Sim uArch: cycles simulated: 2500  inst.: 206458 (ipc=82.6) sim_rate=41291 (inst/sec) elapsed = 0:0:00:05 / Wed May 13 10:18:07 2015
GPGPU-Sim uArch: Shader 0 finished CTA #0 (2500,0), 2 CTAs running
GPGPU-Sim uArch: core:  0, cta: 0 initialized @(2501,0)
GPGPU-Sim uArch: Shader 5 finished CTA #0 (2502,0), 2 CTAs running
GPGPU-Sim uArch: core:  5, cta: 0 initialized @(2503,0)
GPGPU-Sim uArch: Shader 1 finished CTA #2 (2504,0), 2 CTAs running
GPGPU-Sim uArch: core:  1, cta: 2 initialized @(2505,0)
GPGPU-Sim uArch: Shader 0 finished CTA #1 (2507,0), 2 CTAs running
GPGPU-Sim uArch: core:  0, cta: 1 initialized @(2508,0)
GPGPU-Sim uArch: Shader 3 finished CTA #0 (2508,0), 2 CTAs running
GPGPU-Sim uArch: core:  3, cta: 0 initialized @(2509,0)
GPGPU-Sim uArch: Shader 4 finished CTA #0 (2510,0), 2 CTAs running
GPGPU-Sim uArch: core:  4, cta: 0 initialized @(2511,0)
GPGPU-Sim uArch: Shader 5 finished CTA #1 (2512,0), 2 CTAs running
GPGPU-Sim uArch: core:  5, cta: 1 initialized @(2513,0)
GPGPU-Sim uArch: Shader 4 finished CTA #1 (2514,0), 2 CTAs running
GPGPU-Sim uArch: core:  4, cta: 1 initialized @(2515,0)
GPGPU-Sim uArch: Shader 2 finished CTA #0 (2516,0), 2 CTAs running
GPGPU-Sim uArch: core:  2, cta: 0 initialized @(2517,0)
GPGPU-Sim uArch: Shader 3 finished CTA #1 (2518,0), 2 CTAs running
GPGPU-Sim uArch: core:  3, cta: 1 initialized @(2519,0)
GPGPU-Sim uArch: Shader 6 finished CTA #0 (2520,0), 2 CTAs running
GPGPU-Sim uArch: core:  6, cta: 0 initialized @(2521,0)
GPGPU-Sim uArch: Shader 7 finished CTA #0 (2522,0), 2 CTAs running
GPGPU-Sim uArch: core:  7, cta: 0 initialized @(2523,0)
GPGPU-Sim uArch: Shader 8 finished CTA #0 (2524,0), 2 CTAs running
GPGPU-Sim uArch: core:  8, cta: 0 initialized @(2525,0)
GPGPU-Sim uArch: Shader 2 finished CTA #1 (2526,0), 2 CTAs running
GPGPU-Sim uArch: core:  2, cta: 1 initialized @(2527,0)
GPGPU-Sim uArch: Shader 6 finished CTA #1 (2529,0), 2 CTAs running
GPGPU-Sim uArch: core:  6, cta: 1 initialized @(2530,0)
GPGPU-Sim uArch: Shader 7 finished CTA #1 (2531,0), 2 CTAs running
GPGPU-Sim uArch: core:  7, cta: 1 initialized @(2532,0)
GPGPU-Sim uArch: Shader 8 finished CTA #1 (2533,0), 2 CTAs running
GPGPU-Sim uArch: core:  8, cta: 1 initialized @(2534,0)
GPGPU-Sim uArch: Shader 9 finished CTA #0 (2534,0), 2 CTAs running
GPGPU-Sim uArch: core:  9, cta: 0 initialized @(2535,0)
GPGPU-Sim uArch: Shader 10 finished CTA #0 (2536,0), 2 CTAs running
GPGPU-Sim uArch: core: 10, cta: 0 initialized @(2537,0)
GPGPU-Sim uArch: Shader 11 finished CTA #0 (2538,0), 2 CTAs running
GPGPU-Sim uArch: core: 11, cta: 0 initialized @(2539,0)
GPGPU-Sim uArch: Shader 12 finished CTA #0 (2540,0), 2 CTAs running
GPGPU-Sim uArch: core: 12, cta: 0 initialized @(2541,0)
GPGPU-Sim uArch: Shader 13 finished CTA #0 (2542,0), 2 CTAs running
GPGPU-Sim uArch: core: 13, cta: 0 initialized @(2543,0)
GPGPU-Sim uArch: Shader 2 finished CTA #2 (2544,0), 2 CTAs running
GPGPU-Sim uArch: core:  2, cta: 2 initialized @(2545,0)
GPGPU-Sim uArch: Shader 4 finished CTA #2 (2607,0), 2 CTAs running
GPGPU-Sim uArch: core:  4, cta: 2 initialized @(2608,0)
GPGPU-Sim uArch: Shader 6 finished CTA #2 (2624,0), 2 CTAs running
GPGPU-Sim uArch: core:  6, cta: 2 initialized @(2625,0)
GPGPU-Sim uArch: Shader 7 finished CTA #2 (2626,0), 2 CTAs running
GPGPU-Sim uArch: core:  7, cta: 2 initialized @(2627,0)
GPGPU-Sim uArch: Shader 8 finished CTA #2 (2628,0), 2 CTAs running
GPGPU-Sim uArch: core:  8, cta: 2 initialized @(2629,0)
GPGPU-Sim uArch: Shader 0 finished CTA #2 (2630,0), 2 CTAs running
GPGPU-Sim uArch: core:  0, cta: 2 initialized @(2631,0)
GPGPU-Sim uArch: Shader 9 finished CTA #1 (2632,0), 2 CTAs running
GPGPU-Sim uArch: core:  9, cta: 1 initialized @(2633,0)
GPGPU-Sim uArch: Shader 10 finished CTA #1 (2634,0), 2 CTAs running
GPGPU-Sim uArch: core: 10, cta: 1 initialized @(2635,0)
GPGPU-Sim uArch: Shader 5 finished CTA #2 (2636,0), 2 CTAs running
GPGPU-Sim uArch: core:  5, cta: 2 initialized @(2637,0)
GPGPU-Sim uArch: Shader 11 finished CTA #1 (2638,0), 2 CTAs running
GPGPU-Sim uArch: core: 11, cta: 1 initialized @(2639,0)
GPGPU-Sim uArch: Shader 12 finished CTA #1 (2640,0), 2 CTAs running
GPGPU-Sim uArch: core: 12, cta: 1 initialized @(2641,0)
GPGPU-Sim uArch: Shader 3 finished CTA #2 (2642,0), 2 CTAs running
GPGPU-Sim uArch: core:  3, cta: 2 initialized @(2643,0)
GPGPU-Sim uArch: Shader 13 finished CTA #1 (2644,0), 2 CTAs running
GPGPU-Sim uArch: core: 13, cta: 1 initialized @(2645,0)
GPGPU-Sim uArch: Shader 14 finished CTA #0 (2646,0), 2 CTAs running
GPGPU-Sim uArch: core: 14, cta: 0 initialized @(2647,0)
GPGPU-Sim uArch: Shader 9 finished CTA #2 (2648,0), 2 CTAs running
GPGPU-Sim uArch: core:  9, cta: 2 initialized @(2649,0)
GPGPU-Sim uArch: Shader 10 finished CTA #2 (2650,0), 2 CTAs running
GPGPU-Sim uArch: core: 10, cta: 2 initialized @(2651,0)
GPGPU-Sim uArch: Shader 11 finished CTA #2 (2652,0), 2 CTAs running
GPGPU-Sim uArch: core: 11, cta: 2 initialized @(2653,0)
GPGPU-Sim uArch: Shader 12 finished CTA #2 (2654,0), 2 CTAs running
GPGPU-Sim uArch: core: 12, cta: 2 initialized @(2655,0)
GPGPU-Sim uArch: Shader 13 finished CTA #2 (2656,0), 2 CTAs running
GPGPU-Sim uArch: core: 13, cta: 2 initialized @(2657,0)
GPGPU-Sim uArch: Shader 14 finished CTA #1 (2658,0), 2 CTAs running
GPGPU-Sim uArch: core: 14, cta: 1 initialized @(2659,0)
GPGPU-Sim uArch: Shader 14 finished CTA #2 (2663,0), 2 CTAs running
GPGPU-Sim uArch: core: 14, cta: 2 initialized @(2664,0)
GPGPU-Sim PTX: 300000 instructions simulated : ctaid=(66,0,0) tid=(32,0,0)
GPGPU-Sim uArch: cycles simulated: 3000  inst.: 385113 (ipc=128.4) sim_rate=55016 (inst/sec) elapsed = 0:0:00:07 / Wed May 13 10:18:09 2015
GPGPU-Sim PTX: 400000 instructions simulated : ctaid=(81,0,0) tid=(16,0,0)
GPGPU-Sim uArch: Shader 1 finished CTA #1 (3070,0), 2 CTAs running
GPGPU-Sim uArch: core:  1, cta: 1 initialized @(3071,0)
GPGPU-Sim uArch: Shader 1 finished CTA #2 (3092,0), 2 CTAs running
GPGPU-Sim uArch: core:  1, cta: 2 initialized @(3093,0)
GPGPU-Sim uArch: Shader 6 finished CTA #0 (3100,0), 2 CTAs running
GPGPU-Sim uArch: core:  6, cta: 0 initialized @(3101,0)
GPGPU-Sim uArch: Shader 0 finished CTA #0 (3105,0), 2 CTAs running
GPGPU-Sim uArch: core:  0, cta: 0 initialized @(3106,0)
GPGPU-Sim uArch: Shader 5 finished CTA #0 (3107,0), 2 CTAs running
GPGPU-Sim uArch: core:  5, cta: 0 initialized @(3108,0)
GPGPU-Sim uArch: Shader 3 finished CTA #0 (3110,0), 2 CTAs running
GPGPU-Sim uArch: core:  3, cta: 0 initialized @(3111,0)
GPGPU-Sim uArch: Shader 0 finished CTA #1 (3115,0), 2 CTAs running
GPGPU-Sim uArch: core:  0, cta: 1 initialized @(3116,0)
GPGPU-Sim uArch: Shader 5 finished CTA #1 (3118,0), 2 CTAs running
GPGPU-Sim uArch: core:  5, cta: 1 initialized @(3119,0)
GPGPU-Sim uArch: Shader 7 finished CTA #0 (3121,0), 2 CTAs running
GPGPU-Sim uArch: core:  7, cta: 0 initialized @(3122,0)
GPGPU-Sim uArch: Shader 8 finished CTA #0 (3124,0), 2 CTAs running
GPGPU-Sim uArch: core:  8, cta: 0 initialized @(3125,0)
GPGPU-Sim uArch: Shader 3 finished CTA #1 (3128,0), 2 CTAs running
GPGPU-Sim uArch: core:  3, cta: 1 initialized @(3129,0)
GPGPU-Sim uArch: Shader 4 finished CTA #0 (3135,0), 2 CTAs running
GPGPU-Sim uArch: core:  4, cta: 0 initialized @(3136,0)
GPGPU-Sim uArch: Shader 4 finished CTA #1 (3142,0), 2 CTAs running
GPGPU-Sim uArch: core:  4, cta: 1 initialized @(3143,0)
GPGPU-Sim uArch: Shader 6 finished CTA #1 (3144,0), 2 CTAs running
GPGPU-Sim uArch: core:  6, cta: 1 initialized @(3145,0)
GPGPU-Sim uArch: Shader 7 finished CTA #1 (3148,0), 2 CTAs running
GPGPU-Sim uArch: core:  7, cta: 1 initialized @(3149,0)
GPGPU-Sim uArch: Shader 8 finished CTA #1 (3151,0), 2 CTAs running
GPGPU-Sim uArch: core:  8, cta: 1 initialized @(3152,0)
GPGPU-Sim uArch: Shader 2 finished CTA #0 (3154,0), 2 CTAs running
GPGPU-Sim uArch: core:  2, cta: 0 initialized @(3155,0)
GPGPU-Sim uArch: Shader 2 finished CTA #1 (3161,0), 2 CTAs running
GPGPU-Sim uArch: core:  2, cta: 1 initialized @(3162,0)
GPGPU-Sim uArch: Shader 9 finished CTA #0 (3183,0), 2 CTAs running
GPGPU-Sim uArch: core:  9, cta: 0 initialized @(3184,0)
GPGPU-Sim uArch: Shader 13 finished CTA #0 (3259,0), 2 CTAs running
GPGPU-Sim uArch: core: 13, cta: 0 initialized @(3260,0)
GPGPU-Sim uArch: Shader 2 finished CTA #2 (3275,0), 2 CTAs running
GPGPU-Sim uArch: core:  2, cta: 2 initialized @(3276,0)
GPGPU-Sim uArch: Shader 4 finished CTA #2 (3278,0), 2 CTAs running
GPGPU-Sim uArch: core:  4, cta: 2 initialized @(3279,0)
GPGPU-Sim uArch: Shader 9 finished CTA #1 (3279,0), 2 CTAs running
GPGPU-Sim uArch: core:  9, cta: 1 initialized @(3280,0)
GPGPU-Sim uArch: Shader 11 finished CTA #0 (3281,0), 2 CTAs running
GPGPU-Sim uArch: core: 11, cta: 0 initialized @(3282,0)
GPGPU-Sim uArch: Shader 10 finished CTA #1 (3283,0), 2 CTAs running
GPGPU-Sim uArch: core: 10, cta: 1 initialized @(3284,0)
GPGPU-Sim uArch: Shader 11 finished CTA #1 (3285,0), 2 CTAs running
GPGPU-Sim uArch: core: 11, cta: 1 initialized @(3286,0)
GPGPU-Sim uArch: Shader 12 finished CTA #1 (3287,0), 2 CTAs running
GPGPU-Sim uArch: core: 12, cta: 1 initialized @(3288,0)
GPGPU-Sim uArch: Shader 12 finished CTA #0 (3291,0), 2 CTAs running
GPGPU-Sim uArch: Shader 13 finished CTA #1 (3291,0), 2 CTAs running
GPGPU-Sim uArch: core: 13, cta: 1 initialized @(3292,0)
GPGPU-Sim uArch: core: 12, cta: 0 initialized @(3292,0)
GPGPU-Sim uArch: Shader 7 finished CTA #2 (3293,0), 2 CTAs running
GPGPU-Sim uArch: core:  7, cta: 2 initialized @(3294,0)
GPGPU-Sim uArch: Shader 8 finished CTA #2 (3296,0), 2 CTAs running
GPGPU-Sim uArch: core:  8, cta: 2 initialized @(3297,0)
GPGPU-Sim uArch: Shader 9 finished CTA #2 (3297,0), 2 CTAs running
GPGPU-Sim uArch: core:  9, cta: 2 initialized @(3298,0)
GPGPU-Sim uArch: Shader 10 finished CTA #2 (3299,0), 2 CTAs running
GPGPU-Sim uArch: core: 10, cta: 2 initialized @(3300,0)
GPGPU-Sim uArch: Shader 0 finished CTA #2 (3301,0), 2 CTAs running
GPGPU-Sim uArch: core:  0, cta: 2 initialized @(3302,0)
GPGPU-Sim uArch: Shader 3 finished CTA #2 (3303,0), 2 CTAs running
GPGPU-Sim uArch: core:  3, cta: 2 initialized @(3304,0)
GPGPU-Sim uArch: Shader 5 finished CTA #2 (3305,0), 2 CTAs running
GPGPU-Sim uArch: core:  5, cta: 2 initialized @(3306,0)
GPGPU-Sim uArch: Shader 6 finished CTA #2 (3307,0), 2 CTAs running
GPGPU-Sim uArch: core:  6, cta: 2 initialized @(3308,0)
GPGPU-Sim uArch: Shader 11 finished CTA #2 (3309,0), 2 CTAs running
GPGPU-Sim uArch: core: 11, cta: 2 initialized @(3310,0)
GPGPU-Sim uArch: Shader 10 finished CTA #0 (3311,0), 2 CTAs running
GPGPU-Sim uArch: core: 10, cta: 0 initialized @(3312,0)
GPGPU-Sim uArch: Shader 12 finished CTA #2 (3313,0), 2 CTAs running
GPGPU-Sim uArch: core: 12, cta: 2 initialized @(3314,0)
GPGPU-Sim uArch: Shader 13 finished CTA #2 (3315,0), 2 CTAs running
GPGPU-Sim uArch: core: 13, cta: 2 initialized @(3316,0)
GPGPU-Sim uArch: Shader 14 finished CTA #0 (3317,0), 2 CTAs running
GPGPU-Sim uArch: core: 14, cta: 0 initialized @(3318,0)
GPGPU-Sim uArch: Shader 14 finished CTA #1 (3321,0), 2 CTAs running
GPGPU-Sim uArch: Shader 14 finished CTA #2 (3321,0), 1 CTAs running
GPGPU-Sim uArch: core: 14, cta: 1 initialized @(3322,0)
GPGPU-Sim uArch: core: 14, cta: 2 initialized @(3323,0)
GPGPU-Sim PTX: 500000 instructions simulated : ctaid=(90,0,0) tid=(52,0,0)
GPGPU-Sim uArch: cycles simulated: 3500  inst.: 540124 (ipc=154.3) sim_rate=67515 (inst/sec) elapsed = 0:0:00:08 / Wed May 13 10:18:10 2015
GPGPU-Sim PTX: 600000 instructions simulated : ctaid=(119,0,0) tid=(45,0,0)
GPGPU-Sim uArch: Shader 6 finished CTA #0 (3655,0), 2 CTAs running
GPGPU-Sim uArch: core:  6, cta: 0 initialized @(3656,0)
GPGPU-Sim uArch: Shader 5 finished CTA #0 (3674,0), 2 CTAs running
GPGPU-Sim uArch: core:  5, cta: 0 initialized @(3675,0)
GPGPU-Sim uArch: Shader 0 finished CTA #0 (3685,0), 2 CTAs running
GPGPU-Sim uArch: core:  0, cta: 0 initialized @(3686,0)
GPGPU-Sim uArch: Shader 0 finished CTA #1 (3692,0), 2 CTAs running
GPGPU-Sim uArch: core:  0, cta: 1 initialized @(3693,0)
GPGPU-Sim uArch: Shader 3 finished CTA #0 (3700,0), 2 CTAs running
GPGPU-Sim uArch: core:  3, cta: 0 initialized @(3701,0)
GPGPU-Sim uArch: Shader 5 finished CTA #1 (3794,0), 2 CTAs running
GPGPU-Sim uArch: core:  5, cta: 1 initialized @(3795,0)
GPGPU-Sim uArch: Shader 7 finished CTA #1 (3811,0), 2 CTAs running
GPGPU-Sim uArch: core:  7, cta: 1 initialized @(3812,0)
GPGPU-Sim uArch: Shader 8 finished CTA #1 (3813,0), 2 CTAs running
GPGPU-Sim uArch: core:  8, cta: 1 initialized @(3814,0)
GPGPU-Sim uArch: Shader 1 finished CTA #1 (3815,0), 2 CTAs running
GPGPU-Sim uArch: core:  1, cta: 1 initialized @(3816,0)
GPGPU-Sim uArch: Shader 3 finished CTA #1 (3817,0), 2 CTAs running
GPGPU-Sim uArch: core:  3, cta: 1 initialized @(3818,0)
GPGPU-Sim uArch: Shader 6 finished CTA #1 (3819,0), 2 CTAs running
GPGPU-Sim uArch: core:  6, cta: 1 initialized @(3820,0)
GPGPU-Sim uArch: Shader 7 finished CTA #0 (3823,0), 2 CTAs running
GPGPU-Sim uArch: core:  7, cta: 0 initialized @(3824,0)
GPGPU-Sim uArch: Shader 1 finished CTA #2 (3824,0), 2 CTAs running
GPGPU-Sim uArch: core:  1, cta: 2 initialized @(3825,0)
GPGPU-Sim uArch: Shader 4 finished CTA #0 (3825,0), 2 CTAs running
GPGPU-Sim uArch: core:  4, cta: 0 initialized @(3826,0)
GPGPU-Sim uArch: Shader 2 finished CTA #0 (3829,0), 2 CTAs running
GPGPU-Sim uArch: Shader 4 finished CTA #1 (3829,0), 2 CTAs running
GPGPU-Sim uArch: core:  2, cta: 0 initialized @(3830,0)
GPGPU-Sim uArch: core:  4, cta: 1 initialized @(3830,0)
GPGPU-Sim uArch: Shader 8 finished CTA #0 (3831,0), 2 CTAs running
GPGPU-Sim uArch: core:  8, cta: 0 initialized @(3832,0)
GPGPU-Sim uArch: Shader 2 finished CTA #1 (3833,0), 2 CTAs running
GPGPU-Sim uArch: core:  2, cta: 1 initialized @(3834,0)
GPGPU-Sim uArch: Shader 9 finished CTA #0 (3835,0), 2 CTAs running
GPGPU-Sim uArch: core:  9, cta: 0 initialized @(3836,0)
GPGPU-Sim uArch: Shader 9 finished CTA #1 (3935,0), 2 CTAs running
GPGPU-Sim uArch: core:  9, cta: 1 initialized @(3936,0)
GPGPU-Sim uArch: Shader 4 finished CTA #2 (3937,0), 2 CTAs running
GPGPU-Sim uArch: core:  4, cta: 2 initialized @(3938,0)
GPGPU-Sim uArch: Shader 9 finished CTA #2 (3939,0), 2 CTAs running
GPGPU-Sim uArch: core:  9, cta: 2 initialized @(3940,0)
GPGPU-Sim uArch: Shader 2 finished CTA #2 (3941,0), 2 CTAs running
GPGPU-Sim uArch: core:  2, cta: 2 initialized @(3942,0)
GPGPU-Sim uArch: Shader 13 finished CTA #0 (3943,0), 2 CTAs running
GPGPU-Sim uArch: core: 13, cta: 0 initialized @(3944,0)
GPGPU-Sim uArch: Shader 13 finished CTA #1 (3947,0), 2 CTAs running
GPGPU-Sim uArch: core: 13, cta: 1 initialized @(3948,0)
GPGPU-Sim uArch: Shader 7 finished CTA #2 (3948,0), 2 CTAs running
GPGPU-Sim uArch: core:  7, cta: 2 initialized @(3949,0)
GPGPU-Sim uArch: Shader 8 finished CTA #2 (3949,0), 2 CTAs running
GPGPU-Sim uArch: core:  8, cta: 2 initialized @(3950,0)
GPGPU-Sim uArch: Shader 11 finished CTA #0 (3951,0), 2 CTAs running
GPGPU-Sim uArch: core: 11, cta: 0 initialized @(3952,0)
GPGPU-Sim uArch: Shader 3 finished CTA #2 (3954,0), 2 CTAs running
GPGPU-Sim uArch: core:  3, cta: 2 initialized @(3955,0)
GPGPU-Sim uArch: Shader 10 finished CTA #2 (3955,0), 2 CTAs running
GPGPU-Sim uArch: core: 10, cta: 2 initialized @(3956,0)
GPGPU-Sim uArch: Shader 11 finished CTA #1 (3958,0), 2 CTAs running
GPGPU-Sim uArch: core: 11, cta: 1 initialized @(3959,0)
GPGPU-Sim uArch: Shader 12 finished CTA #1 (3959,0), 2 CTAs running
GPGPU-Sim uArch: core: 12, cta: 1 initialized @(3960,0)
GPGPU-Sim uArch: Shader 0 finished CTA #2 (3961,0), 2 CTAs running
GPGPU-Sim uArch: core:  0, cta: 2 initialized @(3962,0)
GPGPU-Sim uArch: Shader 6 finished CTA #2 (3963,0), 2 CTAs running
GPGPU-Sim uArch: core:  6, cta: 2 initialized @(3964,0)
GPGPU-Sim uArch: Shader 10 finished CTA #1 (3965,0), 2 CTAs running
GPGPU-Sim uArch: core: 10, cta: 1 initialized @(3966,0)
GPGPU-Sim uArch: Shader 11 finished CTA #2 (3967,0), 2 CTAs running
GPGPU-Sim uArch: core: 11, cta: 2 initialized @(3968,0)
GPGPU-Sim uArch: Shader 12 finished CTA #0 (3969,0), 2 CTAs running
GPGPU-Sim uArch: core: 12, cta: 0 initialized @(3970,0)
GPGPU-Sim uArch: Shader 5 finished CTA #2 (3971,0), 2 CTAs running
GPGPU-Sim uArch: core:  5, cta: 2 initialized @(3972,0)
GPGPU-Sim uArch: Shader 10 finished CTA #0 (3973,0), 2 CTAs running
GPGPU-Sim uArch: core: 10, cta: 0 initialized @(3974,0)
GPGPU-Sim uArch: cycles simulated: 4000  inst.: 678206 (ipc=169.6) sim_rate=67820 (inst/sec) elapsed = 0:0:00:10 / Wed May 13 10:18:12 2015
GPGPU-Sim PTX: 700000 instructions simulated : ctaid=(149,0,0) tid=(88,0,0)
GPGPU-Sim uArch: Shader 13 finished CTA #2 (4041,0), 2 CTAs running
GPGPU-Sim uArch: core: 13, cta: 2 initialized @(4042,0)
GPGPU-Sim uArch: Shader 14 finished CTA #2 (4056,0), 2 CTAs running
GPGPU-Sim uArch: core: 14, cta: 2 initialized @(4057,0)
GPGPU-Sim uArch: Shader 12 finished CTA #2 (4067,0), 2 CTAs running
GPGPU-Sim uArch: core: 12, cta: 2 initialized @(4068,0)
GPGPU-Sim uArch: Shader 14 finished CTA #0 (4073,0), 2 CTAs running
GPGPU-Sim uArch: core: 14, cta: 0 initialized @(4074,0)
GPGPU-Sim uArch: Shader 14 finished CTA #1 (4081,0), 2 CTAs running
GPGPU-Sim uArch: core: 14, cta: 1 initialized @(4082,0)
GPGPU-Sim uArch: Shader 6 finished CTA #0 (4225,0), 2 CTAs running
GPGPU-Sim uArch: core:  6, cta: 0 initialized @(4226,0)
GPGPU-Sim uArch: Shader 5 finished CTA #0 (4236,0), 2 CTAs running
GPGPU-Sim uArch: core:  5, cta: 0 initialized @(4237,0)
GPGPU-Sim uArch: Shader 3 finished CTA #0 (4267,0), 2 CTAs running
GPGPU-Sim uArch: core:  3, cta: 0 initialized @(4268,0)
GPGPU-Sim PTX: 800000 instructions simulated : ctaid=(160,0,0) tid=(47,0,0)
GPGPU-Sim uArch: Shader 0 finished CTA #0 (4280,0), 2 CTAs running
GPGPU-Sim uArch: core:  0, cta: 0 initialized @(4281,0)
GPGPU-Sim uArch: Shader 0 finished CTA #1 (4287,0), 2 CTAs running
GPGPU-Sim uArch: core:  0, cta: 1 initialized @(4288,0)
GPGPU-Sim uArch: Shader 3 finished CTA #1 (4357,0), 2 CTAs running
GPGPU-Sim uArch: core:  3, cta: 1 initialized @(4358,0)
GPGPU-Sim uArch: Shader 5 finished CTA #1 (4360,0), 2 CTAs running
GPGPU-Sim uArch: core:  5, cta: 1 initialized @(4361,0)
GPGPU-Sim uArch: Shader 6 finished CTA #1 (4363,0), 2 CTAs running
GPGPU-Sim uArch: core:  6, cta: 1 initialized @(4364,0)
GPGPU-Sim uArch: Shader 8 finished CTA #1 (4400,0), 2 CTAs running
GPGPU-Sim uArch: core:  8, cta: 1 initialized @(4401,0)
GPGPU-Sim uArch: Shader 7 finished CTA #0 (4404,0), 2 CTAs running
GPGPU-Sim uArch: core:  7, cta: 0 initialized @(4405,0)
GPGPU-Sim uArch: Shader 4 finished CTA #0 (4413,0), 2 CTAs running
GPGPU-Sim uArch: Shader 7 finished CTA #1 (4413,0), 2 CTAs running
GPGPU-Sim uArch: core:  4, cta: 0 initialized @(4414,0)
GPGPU-Sim uArch: core:  7, cta: 1 initialized @(4414,0)
GPGPU-Sim uArch: Shader 8 finished CTA #0 (4415,0), 2 CTAs running
GPGPU-Sim uArch: core:  8, cta: 0 initialized @(4416,0)
GPGPU-Sim uArch: Shader 2 finished CTA #0 (4418,0), 2 CTAs running
GPGPU-Sim uArch: core:  2, cta: 0 initialized @(4419,0)
GPGPU-Sim uArch: Shader 4 finished CTA #1 (4422,0), 2 CTAs running
GPGPU-Sim uArch: core:  4, cta: 1 initialized @(4423,0)
GPGPU-Sim uArch: Shader 2 finished CTA #1 (4427,0), 2 CTAs running
GPGPU-Sim uArch: core:  2, cta: 1 initialized @(4428,0)
GPGPU-Sim uArch: Shader 9 finished CTA #0 (4456,0), 2 CTAs running
GPGPU-Sim uArch: core:  9, cta: 0 initialized @(4457,0)
GPGPU-Sim uArch: Shader 1 finished CTA #1 (4463,0), 2 CTAs running
GPGPU-Sim uArch: core:  1, cta: 1 initialized @(4464,0)
GPGPU-Sim uArch: Shader 1 finished CTA #2 (4471,0), 2 CTAs running
GPGPU-Sim uArch: core:  1, cta: 2 initialized @(4472,0)
GPGPU-Sim uArch: cycles simulated: 4500  inst.: 850994 (ipc=189.1) sim_rate=77363 (inst/sec) elapsed = 0:0:00:11 / Wed May 13 10:18:13 2015
GPGPU-Sim uArch: Shader 9 finished CTA #1 (4546,0), 2 CTAs running
GPGPU-Sim uArch: core:  9, cta: 1 initialized @(4547,0)
GPGPU-Sim uArch: Shader 9 finished CTA #2 (4550,0), 2 CTAs running
GPGPU-Sim uArch: core:  9, cta: 2 initialized @(4551,0)
GPGPU-Sim uArch: Shader 13 finished CTA #0 (4558,0), 2 CTAs running
GPGPU-Sim uArch: core: 13, cta: 0 initialized @(4559,0)
GPGPU-Sim uArch: Shader 13 finished CTA #1 (4565,0), 2 CTAs running
GPGPU-Sim uArch: core: 13, cta: 1 initialized @(4566,0)
GPGPU-Sim uArch: Shader 7 finished CTA #2 (4572,0), 2 CTAs running
GPGPU-Sim uArch: core:  7, cta: 2 initialized @(4573,0)
GPGPU-Sim uArch: Shader 4 finished CTA #2 (4592,0), 2 CTAs running
GPGPU-Sim uArch: core:  4, cta: 2 initialized @(4593,0)
GPGPU-Sim uArch: Shader 8 finished CTA #2 (4593,0), 2 CTAs running
GPGPU-Sim uArch: core:  8, cta: 2 initialized @(4594,0)
GPGPU-Sim uArch: Shader 2 finished CTA #2 (4597,0), 2 CTAs running
GPGPU-Sim uArch: core:  2, cta: 2 initialized @(4598,0)
GPGPU-Sim PTX: 900000 instructions simulated : ctaid=(181,0,0) tid=(45,0,0)
GPGPU-Sim uArch: Shader 12 finished CTA #1 (4675,0), 2 CTAs running
GPGPU-Sim uArch: core: 12, cta: 1 initialized @(4676,0)
GPGPU-Sim uArch: Shader 6 finished CTA #2 (4691,0), 2 CTAs running
GPGPU-Sim uArch: core:  6, cta: 2 initialized @(4692,0)
GPGPU-Sim uArch: Shader 10 finished CTA #2 (4693,0), 2 CTAs running
GPGPU-Sim uArch: core: 10, cta: 2 initialized @(4694,0)
GPGPU-Sim uArch: Shader 11 finished CTA #0 (4695,0), 2 CTAs running
GPGPU-Sim uArch: core: 11, cta: 0 initialized @(4696,0)
GPGPU-Sim uArch: Shader 12 finished CTA #0 (4697,0), 2 CTAs running
GPGPU-Sim uArch: core: 12, cta: 0 initialized @(4698,0)
GPGPU-Sim uArch: Shader 10 finished CTA #1 (4700,0), 2 CTAs running
GPGPU-Sim uArch: core: 10, cta: 1 initialized @(4701,0)
GPGPU-Sim uArch: Shader 11 finished CTA #1 (4702,0), 2 CTAs running
GPGPU-Sim uArch: core: 11, cta: 1 initialized @(4703,0)
GPGPU-Sim uArch: Shader 10 finished CTA #0 (4706,0), 2 CTAs running
GPGPU-Sim uArch: core: 10, cta: 0 initialized @(4707,0)
GPGPU-Sim uArch: Shader 11 finished CTA #2 (4707,0), 2 CTAs running
GPGPU-Sim uArch: core: 11, cta: 2 initialized @(4708,0)
GPGPU-Sim uArch: Shader 0 finished CTA #2 (4710,0), 2 CTAs running
GPGPU-Sim uArch: Shader 13 finished CTA #2 (4710,0), 2 CTAs running
GPGPU-Sim uArch: core: 13, cta: 2 initialized @(4711,0)
GPGPU-Sim uArch: core:  0, cta: 2 initialized @(4711,0)
GPGPU-Sim uArch: Shader 12 finished CTA #2 (4711,0), 2 CTAs running
GPGPU-Sim uArch: core: 12, cta: 2 initialized @(4712,0)
GPGPU-Sim uArch: Shader 3 finished CTA #2 (4713,0), 2 CTAs running
GPGPU-Sim uArch: core:  3, cta: 2 initialized @(4714,0)
GPGPU-Sim uArch: Shader 5 finished CTA #2 (4715,0), 2 CTAs running
GPGPU-Sim uArch: core:  5, cta: 2 initialized @(4716,0)
GPGPU-Sim uArch: Shader 14 finished CTA #0 (4717,0), 2 CTAs running
GPGPU-Sim uArch: core: 14, cta: 0 initialized @(4718,0)
GPGPU-Sim uArch: Shader 14 finished CTA #1 (4721,0), 2 CTAs running
GPGPU-Sim uArch: Shader 14 finished CTA #2 (4721,0), 1 CTAs running
GPGPU-Sim uArch: core: 14, cta: 1 initialized @(4722,0)
GPGPU-Sim uArch: core: 14, cta: 2 initialized @(4723,0)
GPGPU-Sim uArch: Shader 6 finished CTA #0 (4771,0), 2 CTAs running
GPGPU-Sim uArch: core:  6, cta: 0 initialized @(4772,0)
GPGPU-Sim uArch: Shader 5 finished CTA #0 (4781,0), 2 CTAs running
GPGPU-Sim uArch: core:  5, cta: 0 initialized @(4782,0)
GPGPU-Sim uArch: Shader 3 finished CTA #0 (4815,0), 2 CTAs running
GPGPU-Sim uArch: core:  3, cta: 0 initialized @(4816,0)
GPGPU-Sim uArch: Shader 0 finished CTA #0 (4864,0), 2 CTAs running
GPGPU-Sim uArch: core:  0, cta: 0 initialized @(4865,0)
GPGPU-Sim uArch: Shader 0 finished CTA #1 (4869,0), 2 CTAs running
GPGPU-Sim uArch: core:  0, cta: 1 initialized @(4870,0)
GPGPU-Sim PTX: 1000000 instructions simulated : ctaid=(221,0,0) tid=(94,0,0)
GPGPU-Sim uArch: Shader 3 finished CTA #1 (4954,0), 2 CTAs running
GPGPU-Sim uArch: core:  3, cta: 1 initialized @(4955,0)
GPGPU-Sim uArch: Shader 6 finished CTA #1 (4963,0), 2 CTAs running
GPGPU-Sim uArch: core:  6, cta: 1 initialized @(4964,0)
GPGPU-Sim uArch: Shader 5 finished CTA #1 (4973,0), 2 CTAs running
GPGPU-Sim uArch: core:  5, cta: 1 initialized @(4974,0)
GPGPU-Sim uArch: Shader 8 finished CTA #1 (4991,0), 2 CTAs running
GPGPU-Sim uArch: core:  8, cta: 1 initialized @(4992,0)
GPGPU-Sim uArch: cycles simulated: 5000  inst.: 1010043 (ipc=202.0) sim_rate=77695 (inst/sec) elapsed = 0:0:00:13 / Wed May 13 10:18:15 2015
GPGPU-Sim uArch: Shader 8 finished CTA #0 (5000,0), 2 CTAs running
GPGPU-Sim uArch: core:  8, cta: 0 initialized @(5001,0)
GPGPU-Sim uArch: Shader 7 finished CTA #0 (5006,0), 2 CTAs running
GPGPU-Sim uArch: core:  7, cta: 0 initialized @(5007,0)
GPGPU-Sim uArch: Shader 4 finished CTA #0 (5009,0), 2 CTAs running
GPGPU-Sim uArch: core:  4, cta: 0 initialized @(5010,0)
GPGPU-Sim uArch: Shader 7 finished CTA #1 (5014,0), 2 CTAs running
GPGPU-Sim uArch: core:  7, cta: 1 initialized @(5015,0)
GPGPU-Sim uArch: Shader 2 finished CTA #0 (5016,0), 2 CTAs running
GPGPU-Sim uArch: core:  2, cta: 0 initialized @(5017,0)
GPGPU-Sim uArch: Shader 4 finished CTA #1 (5019,0), 2 CTAs running
GPGPU-Sim uArch: core:  4, cta: 1 initialized @(5020,0)
GPGPU-Sim uArch: Shader 2 finished CTA #1 (5133,0), 2 CTAs running
GPGPU-Sim uArch: core:  2, cta: 1 initialized @(5134,0)
GPGPU-Sim uArch: Shader 9 finished CTA #1 (5150,0), 2 CTAs running
GPGPU-Sim uArch: core:  9, cta: 1 initialized @(5151,0)
GPGPU-Sim uArch: Shader 9 finished CTA #2 (5154,0), 2 CTAs running
GPGPU-Sim uArch: Shader 13 finished CTA #0 (5154,0), 2 CTAs running
GPGPU-Sim uArch: core: 13, cta: 0 initialized @(5155,0)
GPGPU-Sim uArch: core:  9, cta: 2 initialized @(5155,0)
GPGPU-Sim uArch: Shader 13 finished CTA #1 (5159,0), 2 CTAs running
GPGPU-Sim uArch: core: 13, cta: 1 initialized @(5160,0)
GPGPU-Sim uArch: Shader 7 finished CTA #2 (5182,0), 2 CTAs running
GPGPU-Sim uArch: core:  7, cta: 2 initialized @(5183,0)
GPGPU-Sim PTX: 1100000 instructions simulated : ctaid=(225,0,0) tid=(24,0,0)
GPGPU-Sim uArch: Shader 4 finished CTA #2 (5211,0), 2 CTAs running
GPGPU-Sim uArch: core:  4, cta: 2 initialized @(5212,0)
GPGPU-Sim uArch: Shader 2 finished CTA #2 (5217,0), 2 CTAs running
GPGPU-Sim uArch: core:  2, cta: 2 initialized @(5218,0)
GPGPU-Sim uArch: Shader 1 finished CTA #1 (5226,0), 2 CTAs running
GPGPU-Sim uArch: core:  1, cta: 1 initialized @(5227,0)
GPGPU-Sim uArch: Shader 1 finished CTA #2 (5234,0), 2 CTAs running
GPGPU-Sim uArch: core:  1, cta: 2 initialized @(5235,0)
GPGPU-Sim uArch: Shader 8 finished CTA #2 (5236,0), 2 CTAs running
GPGPU-Sim uArch: core:  8, cta: 2 initialized @(5237,0)
GPGPU-Sim uArch: Shader 9 finished CTA #0 (5238,0), 2 CTAs running
GPGPU-Sim uArch: core:  9, cta: 0 initialized @(5239,0)
GPGPU-Sim uArch: Shader 6 finished CTA #2 (5252,0), 2 CTAs running
GPGPU-Sim uArch: core:  6, cta: 2 initialized @(5253,0)
GPGPU-Sim uArch: Shader 5 finished CTA #2 (5278,0), 2 CTAs running
GPGPU-Sim uArch: core:  5, cta: 2 initialized @(5279,0)
GPGPU-Sim uArch: Shader 0 finished CTA #2 (5301,0), 2 CTAs running
GPGPU-Sim uArch: core:  0, cta: 2 initialized @(5302,0)
GPGPU-Sim uArch: Shader 3 finished CTA #2 (5321,0), 2 CTAs running
GPGPU-Sim uArch: core:  3, cta: 2 initialized @(5322,0)
GPGPU-Sim uArch: Shader 13 finished CTA #2 (5326,0), 2 CTAs running
GPGPU-Sim uArch: core: 13, cta: 2 initialized @(5327,0)
GPGPU-Sim uArch: Shader 12 finished CTA #1 (5332,0), 2 CTAs running
GPGPU-Sim uArch: core: 12, cta: 1 initialized @(5333,0)
GPGPU-Sim uArch: Shader 12 finished CTA #0 (5336,0), 2 CTAs running
GPGPU-Sim uArch: core: 12, cta: 0 initialized @(5337,0)
GPGPU-Sim uArch: Shader 12 finished CTA #2 (5341,0), 2 CTAs running
GPGPU-Sim uArch: core: 12, cta: 2 initialized @(5342,0)
GPGPU-Sim uArch: Shader 10 finished CTA #2 (5343,0), 2 CTAs running
GPGPU-Sim uArch: Shader 11 finished CTA #1 (5347,0), 2 CTAs running
GPGPU-Sim uArch: Shader 6 finished CTA #0 (5350,0), 2 CTAs running
GPGPU-Sim uArch: Shader 10 finished CTA #1 (5353,0), 1 CTAs running
GPGPU-Sim uArch: Shader 11 finished CTA #0 (5356,0), 1 CTAs running
GPGPU-Sim uArch: Shader 10 finished CTA #0 (5359,0), 0 CTAs running
GPGPU-Sim uArch: Shader 10 empty (release kernel 1 '_Z24solve_nqueen_cuda_kerneliiPjS_S_S_i').
GPGPU-Sim uArch: Shader 11 finished CTA #2 (5362,0), 0 CTAs running
GPGPU-Sim uArch: Shader 11 empty (release kernel 1 '_Z24solve_nqueen_cuda_kerneliiPjS_S_S_i').
GPGPU-Sim uArch: Shader 14 finished CTA #0 (5366,0), 2 CTAs running
GPGPU-Sim uArch: Shader 3 finished CTA #0 (5369,0), 2 CTAs running
GPGPU-Sim uArch: Shader 5 finished CTA #0 (5372,0), 2 CTAs running
GPGPU-Sim uArch: Shader 14 finished CTA #1 (5375,0), 1 CTAs running
GPGPU-Sim uArch: Shader 14 finished CTA #2 (5378,0), 0 CTAs running
GPGPU-Sim uArch: Shader 14 empty (release kernel 1 '_Z24solve_nqueen_cuda_kerneliiPjS_S_S_i').
GPGPU-Sim uArch: cycles simulated: 5500  inst.: 1155281 (ipc=210.1) sim_rate=77018 (inst/sec) elapsed = 0:0:00:15 / Wed May 13 10:18:17 2015
GPGPU-Sim uArch: Shader 0 finished CTA #0 (5572,0), 2 CTAs running
GPGPU-Sim uArch: Shader 8 finished CTA #1 (5590,0), 2 CTAs running
GPGPU-Sim uArch: Shader 7 finished CTA #1 (5592,0), 2 CTAs running
GPGPU-Sim uArch: Shader 0 finished CTA #1 (5593,0), 1 CTAs running
GPGPU-Sim uArch: Shader 7 finished CTA #0 (5595,0), 1 CTAs running
GPGPU-Sim uArch: Shader 8 finished CTA #0 (5598,0), 1 CTAs running
GPGPU-Sim PTX: 1200000 instructions simulated : ctaid=(240,0,0) tid=(95,0,0)
GPGPU-Sim uArch: Shader 4 finished CTA #0 (5606,0), 2 CTAs running
GPGPU-Sim uArch: Shader 5 finished CTA #1 (5609,0), 1 CTAs running
GPGPU-Sim uArch: Shader 4 finished CTA #1 (5612,0), 1 CTAs running
GPGPU-Sim uArch: Shader 2 finished CTA #0 (5653,0), 2 CTAs running
GPGPU-Sim uArch: Shader 3 finished CTA #1 (5670,0), 1 CTAs running
GPGPU-Sim uArch: Shader 6 finished CTA #1 (5691,0), 1 CTAs running
GPGPU-Sim uArch: Shader 2 finished CTA #1 (5693,0), 1 CTAs running
GPGPU-Sim uArch: Shader 13 finished CTA #1 (5738,0), 2 CTAs running
GPGPU-Sim uArch: Shader 13 finished CTA #0 (5741,0), 1 CTAs running
GPGPU-Sim uArch: Shader 9 finished CTA #1 (5753,0), 2 CTAs running
GPGPU-Sim uArch: Shader 9 finished CTA #2 (5762,0), 1 CTAs running
GPGPU-Sim uArch: Shader 6 finished CTA #2 (5786,0), 0 CTAs running
GPGPU-Sim uArch: Shader 6 empty (release kernel 1 '_Z24solve_nqueen_cuda_kerneliiPjS_S_S_i').
GPGPU-Sim uArch: Shader 5 finished CTA #2 (5810,0), 0 CTAs running
GPGPU-Sim uArch: Shader 5 empty (release kernel 1 '_Z24solve_nqueen_cuda_kerneliiPjS_S_S_i').
GPGPU-Sim uArch: Shader 7 finished CTA #2 (5814,0), 0 CTAs running
GPGPU-Sim uArch: Shader 7 empty (release kernel 1 '_Z24solve_nqueen_cuda_kerneliiPjS_S_S_i').
GPGPU-Sim uArch: Shader 2 finished CTA #2 (5817,0), 0 CTAs running
GPGPU-Sim uArch: Shader 2 empty (release kernel 1 '_Z24solve_nqueen_cuda_kerneliiPjS_S_S_i').
GPGPU-Sim uArch: Shader 0 finished CTA #2 (5828,0), 0 CTAs running
GPGPU-Sim uArch: Shader 0 empty (release kernel 1 '_Z24solve_nqueen_cuda_kerneliiPjS_S_S_i').
GPGPU-Sim uArch: Shader 4 finished CTA #2 (5837,0), 0 CTAs running
GPGPU-Sim uArch: Shader 4 empty (release kernel 1 '_Z24solve_nqueen_cuda_kerneliiPjS_S_S_i').
GPGPU-Sim uArch: Shader 8 finished CTA #2 (5851,0), 0 CTAs running
GPGPU-Sim uArch: Shader 8 empty (release kernel 1 '_Z24solve_nqueen_cuda_kerneliiPjS_S_S_i').
GPGPU-Sim uArch: Shader 3 finished CTA #2 (5857,0), 0 CTAs running
GPGPU-Sim uArch: Shader 3 empty (release kernel 1 '_Z24solve_nqueen_cuda_kerneliiPjS_S_S_i').
GPGPU-Sim uArch: Shader 9 finished CTA #0 (5877,0), 0 CTAs running
GPGPU-Sim uArch: Shader 9 empty (release kernel 1 '_Z24solve_nqueen_cuda_kerneliiPjS_S_S_i').
GPGPU-Sim uArch: Shader 1 finished CTA #1 (5888,0), 2 CTAs running
GPGPU-Sim uArch: Shader 1 finished CTA #2 (5896,0), 1 CTAs running
GPGPU-Sim uArch: Shader 13 finished CTA #2 (5959,0), 0 CTAs running
GPGPU-Sim uArch: Shader 13 empty (release kernel 1 '_Z24solve_nqueen_cuda_kerneliiPjS_S_S_i').
GPGPU-Sim uArch: Shader 12 finished CTA #1 (5983,0), 2 CTAs running
GPGPU-Sim uArch: Shader 12 finished CTA #0 (5987,0), 1 CTAs running
GPGPU-Sim uArch: Shader 12 finished CTA #2 (5995,0), 0 CTAs running
GPGPU-Sim uArch: Shader 12 empty (release kernel 1 '_Z24solve_nqueen_cuda_kerneliiPjS_S_S_i').
GPGPU-Sim uArch: cycles simulated: 7500  inst.: 1199994 (ipc=160.0) sim_rate=74999 (inst/sec) elapsed = 0:0:00:16 / Wed May 13 10:18:18 2015
GPGPU-Sim uArch: cycles simulated: 11000  inst.: 1213402 (ipc=110.3) sim_rate=71376 (inst/sec) elapsed = 0:0:00:17 / Wed May 13 10:18:19 2015
GPGPU-Sim uArch: cycles simulated: 14500  inst.: 1227173 (ipc=84.6) sim_rate=68176 (inst/sec) elapsed = 0:0:00:18 / Wed May 13 10:18:20 2015
GPGPU-Sim uArch: cycles simulated: 17500  inst.: 1238375 (ipc=70.8) sim_rate=65177 (inst/sec) elapsed = 0:0:00:19 / Wed May 13 10:18:21 2015
GPGPU-Sim uArch: cycles simulated: 21000  inst.: 1252305 (ipc=59.6) sim_rate=62615 (inst/sec) elapsed = 0:0:00:20 / Wed May 13 10:18:22 2015
GPGPU-Sim uArch: cycles simulated: 24500  inst.: 1265589 (ipc=51.7) sim_rate=60266 (inst/sec) elapsed = 0:0:00:21 / Wed May 13 10:18:23 2015
GPGPU-Sim PTX: 1300000 instructions simulated : ctaid=(0,0,0) tid=(4,0,0)
GPGPU-Sim uArch: cycles simulated: 28000  inst.: 1279265 (ipc=45.7) sim_rate=58148 (inst/sec) elapsed = 0:0:00:22 / Wed May 13 10:18:24 2015
GPGPU-Sim uArch: cycles simulated: 31500  inst.: 1292664 (ipc=41.0) sim_rate=56202 (inst/sec) elapsed = 0:0:00:23 / Wed May 13 10:18:25 2015
GPGPU-Sim uArch: cycles simulated: 35000  inst.: 1306288 (ipc=37.3) sim_rate=54428 (inst/sec) elapsed = 0:0:00:24 / Wed May 13 10:18:26 2015
GPGPU-Sim uArch: cycles simulated: 38500  inst.: 1319568 (ipc=34.3) sim_rate=52782 (inst/sec) elapsed = 0:0:00:25 / Wed May 13 10:18:27 2015
GPGPU-Sim uArch: cycles simulated: 42000  inst.: 1333500 (ipc=31.8) sim_rate=51288 (inst/sec) elapsed = 0:0:00:26 / Wed May 13 10:18:28 2015
GPGPU-Sim uArch: cycles simulated: 45500  inst.: 1347013 (ipc=29.6) sim_rate=49889 (inst/sec) elapsed = 0:0:00:27 / Wed May 13 10:18:29 2015
GPGPU-Sim uArch: cycles simulated: 48500  inst.: 1358722 (ipc=28.0) sim_rate=48525 (inst/sec) elapsed = 0:0:00:28 / Wed May 13 10:18:30 2015
GPGPU-Sim PTX: 1400000 instructions simulated : ctaid=(0,0,0) tid=(27,0,0)
GPGPU-Sim uArch: cycles simulated: 52000  inst.: 1372126 (ipc=26.4) sim_rate=47314 (inst/sec) elapsed = 0:0:00:29 / Wed May 13 10:18:31 2015
GPGPU-Sim uArch: cycles simulated: 55500  inst.: 1385572 (ipc=25.0) sim_rate=46185 (inst/sec) elapsed = 0:0:00:30 / Wed May 13 10:18:32 2015
GPGPU-Sim uArch: cycles simulated: 59000  inst.: 1399152 (ipc=23.7) sim_rate=45133 (inst/sec) elapsed = 0:0:00:31 / Wed May 13 10:18:33 2015
GPGPU-Sim uArch: cycles simulated: 62500  inst.: 1412347 (ipc=22.6) sim_rate=44135 (inst/sec) elapsed = 0:0:00:32 / Wed May 13 10:18:34 2015
GPGPU-Sim uArch: cycles simulated: 66000  inst.: 1426136 (ipc=21.6) sim_rate=43216 (inst/sec) elapsed = 0:0:00:33 / Wed May 13 10:18:35 2015
GPGPU-Sim uArch: cycles simulated: 69500  inst.: 1439730 (ipc=20.7) sim_rate=42345 (inst/sec) elapsed = 0:0:00:34 / Wed May 13 10:18:36 2015
GPGPU-Sim uArch: cycles simulated: 73000  inst.: 1453218 (ipc=19.9) sim_rate=41520 (inst/sec) elapsed = 0:0:00:35 / Wed May 13 10:18:37 2015
GPGPU-Sim PTX: 1500000 instructions simulated : ctaid=(0,0,0) tid=(37,0,0)
GPGPU-Sim uArch: cycles simulated: 76500  inst.: 1466853 (ipc=19.2) sim_rate=40745 (inst/sec) elapsed = 0:0:00:36 / Wed May 13 10:18:38 2015
GPGPU-Sim uArch: cycles simulated: 80000  inst.: 1480089 (ipc=18.5) sim_rate=40002 (inst/sec) elapsed = 0:0:00:37 / Wed May 13 10:18:39 2015
GPGPU-Sim uArch: cycles simulated: 83500  inst.: 1493619 (ipc=17.9) sim_rate=39305 (inst/sec) elapsed = 0:0:00:38 / Wed May 13 10:18:40 2015
GPGPU-Sim uArch: cycles simulated: 87000  inst.: 1507207 (ipc=17.3) sim_rate=38646 (inst/sec) elapsed = 0:0:00:39 / Wed May 13 10:18:41 2015
GPGPU-Sim uArch: cycles simulated: 90500  inst.: 1520835 (ipc=16.8) sim_rate=38020 (inst/sec) elapsed = 0:0:00:40 / Wed May 13 10:18:42 2015
GPGPU-Sim uArch: cycles simulated: 94000  inst.: 1534303 (ipc=16.3) sim_rate=37422 (inst/sec) elapsed = 0:0:00:41 / Wed May 13 10:18:43 2015
GPGPU-Sim uArch: cycles simulated: 97500  inst.: 1547909 (ipc=15.9) sim_rate=36854 (inst/sec) elapsed = 0:0:00:42 / Wed May 13 10:18:44 2015
GPGPU-Sim uArch: cycles simulated: 101000  inst.: 1560919 (ipc=15.5) sim_rate=36300 (inst/sec) elapsed = 0:0:00:43 / Wed May 13 10:18:45 2015
GPGPU-Sim PTX: 1600000 instructions simulated : ctaid=(0,0,0) tid=(31,0,0)
GPGPU-Sim uArch: cycles simulated: 104500  inst.: 1574748 (ipc=15.1) sim_rate=35789 (inst/sec) elapsed = 0:0:00:44 / Wed May 13 10:18:46 2015
GPGPU-Sim uArch: cycles simulated: 108000  inst.: 1588204 (ipc=14.7) sim_rate=35293 (inst/sec) elapsed = 0:0:00:45 / Wed May 13 10:18:47 2015
GPGPU-Sim uArch: cycles simulated: 111500  inst.: 1601663 (ipc=14.4) sim_rate=34818 (inst/sec) elapsed = 0:0:00:46 / Wed May 13 10:18:48 2015
GPGPU-Sim uArch: cycles simulated: 115000  inst.: 1614997 (ipc=14.0) sim_rate=34361 (inst/sec) elapsed = 0:0:00:47 / Wed May 13 10:18:49 2015
GPGPU-Sim uArch: cycles simulated: 118500  inst.: 1628396 (ipc=13.7) sim_rate=33924 (inst/sec) elapsed = 0:0:00:48 / Wed May 13 10:18:50 2015
GPGPU-Sim uArch: cycles simulated: 122000  inst.: 1642147 (ipc=13.5) sim_rate=33513 (inst/sec) elapsed = 0:0:00:49 / Wed May 13 10:18:51 2015
GPGPU-Sim uArch: cycles simulated: 125500  inst.: 1655847 (ipc=13.2) sim_rate=33116 (inst/sec) elapsed = 0:0:00:50 / Wed May 13 10:18:52 2015
GPGPU-Sim PTX: 1700000 instructions simulated : ctaid=(0,0,0) tid=(1,0,0)
GPGPU-Sim uArch: cycles simulated: 129000  inst.: 1669354 (ipc=12.9) sim_rate=32732 (inst/sec) elapsed = 0:0:00:51 / Wed May 13 10:18:53 2015
GPGPU-Sim uArch: cycles simulated: 132500  inst.: 1682815 (ipc=12.7) sim_rate=32361 (inst/sec) elapsed = 0:0:00:52 / Wed May 13 10:18:54 2015
GPGPU-Sim uArch: cycles simulated: 136000  inst.: 1696367 (ipc=12.5) sim_rate=32006 (inst/sec) elapsed = 0:0:00:53 / Wed May 13 10:18:55 2015
GPGPU-Sim uArch: cycles simulated: 139500  inst.: 1709335 (ipc=12.3) sim_rate=31654 (inst/sec) elapsed = 0:0:00:54 / Wed May 13 10:18:56 2015
GPGPU-Sim uArch: cycles simulated: 143000  inst.: 1723093 (ipc=12.0) sim_rate=31328 (inst/sec) elapsed = 0:0:00:55 / Wed May 13 10:18:57 2015
GPGPU-Sim uArch: cycles simulated: 146500  inst.: 1736594 (ipc=11.9) sim_rate=31010 (inst/sec) elapsed = 0:0:00:56 / Wed May 13 10:18:58 2015
GPGPU-Sim uArch: cycles simulated: 150000  inst.: 1749938 (ipc=11.7) sim_rate=30700 (inst/sec) elapsed = 0:0:00:57 / Wed May 13 10:18:59 2015
GPGPU-Sim PTX: 1800000 instructions simulated : ctaid=(0,0,0) tid=(15,0,0)
GPGPU-Sim uArch: cycles simulated: 153500  inst.: 1763663 (ipc=11.5) sim_rate=30407 (inst/sec) elapsed = 0:0:00:58 / Wed May 13 10:19:00 2015
GPGPU-Sim uArch: cycles simulated: 157000  inst.: 1776978 (ipc=11.3) sim_rate=30118 (inst/sec) elapsed = 0:0:00:59 / Wed May 13 10:19:01 2015
GPGPU-Sim uArch: cycles simulated: 160500  inst.: 1790718 (ipc=11.2) sim_rate=29845 (inst/sec) elapsed = 0:0:01:00 / Wed May 13 10:19:02 2015
GPGPU-Sim uArch: cycles simulated: 164000  inst.: 1804135 (ipc=11.0) sim_rate=29575 (inst/sec) elapsed = 0:0:01:01 / Wed May 13 10:19:03 2015
GPGPU-Sim uArch: cycles simulated: 167500  inst.: 1817683 (ipc=10.9) sim_rate=29317 (inst/sec) elapsed = 0:0:01:02 / Wed May 13 10:19:04 2015
GPGPU-Sim uArch: cycles simulated: 171000  inst.: 1830986 (ipc=10.7) sim_rate=29063 (inst/sec) elapsed = 0:0:01:03 / Wed May 13 10:19:05 2015
GPGPU-Sim uArch: cycles simulated: 174500  inst.: 1844530 (ipc=10.6) sim_rate=28820 (inst/sec) elapsed = 0:0:01:04 / Wed May 13 10:19:06 2015
GPGPU-Sim PTX: 1900000 instructions simulated : ctaid=(0,0,0) tid=(29,0,0)
GPGPU-Sim uArch: cycles simulated: 178000  inst.: 1857955 (ipc=10.4) sim_rate=28583 (inst/sec) elapsed = 0:0:01:05 / Wed May 13 10:19:07 2015
GPGPU-Sim uArch: cycles simulated: 181500  inst.: 1871585 (ipc=10.3) sim_rate=28357 (inst/sec) elapsed = 0:0:01:06 / Wed May 13 10:19:08 2015
GPGPU-Sim uArch: cycles simulated: 185000  inst.: 1885058 (ipc=10.2) sim_rate=28135 (inst/sec) elapsed = 0:0:01:07 / Wed May 13 10:19:09 2015
GPGPU-Sim uArch: cycles simulated: 188500  inst.: 1898641 (ipc=10.1) sim_rate=27921 (inst/sec) elapsed = 0:0:01:08 / Wed May 13 10:19:10 2015
GPGPU-Sim uArch: cycles simulated: 192000  inst.: 1911939 (ipc=10.0) sim_rate=27709 (inst/sec) elapsed = 0:0:01:09 / Wed May 13 10:19:11 2015
GPGPU-Sim uArch: cycles simulated: 195500  inst.: 1925802 (ipc= 9.9) sim_rate=27511 (inst/sec) elapsed = 0:0:01:10 / Wed May 13 10:19:12 2015
GPGPU-Sim uArch: cycles simulated: 199000  inst.: 1939109 (ipc= 9.7) sim_rate=27311 (inst/sec) elapsed = 0:0:01:11 / Wed May 13 10:19:13 2015
GPGPU-Sim PTX: 2000000 instructions simulated : ctaid=(0,0,0) tid=(26,0,0)
GPGPU-Sim uArch: cycles simulated: 202500  inst.: 1952637 (ipc= 9.6) sim_rate=27119 (inst/sec) elapsed = 0:0:01:12 / Wed May 13 10:19:14 2015
GPGPU-Sim uArch: cycles simulated: 205500  inst.: 1963928 (ipc= 9.6) sim_rate=26903 (inst/sec) elapsed = 0:0:01:13 / Wed May 13 10:19:15 2015
GPGPU-Sim uArch: cycles simulated: 209500  inst.: 1979335 (ipc= 9.4) sim_rate=26747 (inst/sec) elapsed = 0:0:01:14 / Wed May 13 10:19:16 2015
GPGPU-Sim uArch: cycles simulated: 213000  inst.: 1992743 (ipc= 9.4) sim_rate=26569 (inst/sec) elapsed = 0:0:01:15 / Wed May 13 10:19:17 2015
GPGPU-Sim uArch: cycles simulated: 216000  inst.: 2004609 (ipc= 9.3) sim_rate=26376 (inst/sec) elapsed = 0:0:01:16 / Wed May 13 10:19:18 2015
GPGPU-Sim uArch: cycles simulated: 219500  inst.: 2018036 (ipc= 9.2) sim_rate=26208 (inst/sec) elapsed = 0:0:01:17 / Wed May 13 10:19:19 2015
GPGPU-Sim uArch: cycles simulated: 223000  inst.: 2031960 (ipc= 9.1) sim_rate=26050 (inst/sec) elapsed = 0:0:01:18 / Wed May 13 10:19:20 2015
GPGPU-Sim PTX: 2100000 instructions simulated : ctaid=(0,0,0) tid=(32,0,0)
GPGPU-Sim uArch: cycles simulated: 226500  inst.: 2045319 (ipc= 9.0) sim_rate=25890 (inst/sec) elapsed = 0:0:01:19 / Wed May 13 10:19:21 2015
GPGPU-Sim uArch: cycles simulated: 230000  inst.: 2058970 (ipc= 9.0) sim_rate=25737 (inst/sec) elapsed = 0:0:01:20 / Wed May 13 10:19:22 2015
GPGPU-Sim uArch: cycles simulated: 233500  inst.: 2072303 (ipc= 8.9) sim_rate=25583 (inst/sec) elapsed = 0:0:01:21 / Wed May 13 10:19:23 2015
GPGPU-Sim uArch: cycles simulated: 237000  inst.: 2085932 (ipc= 8.8) sim_rate=25438 (inst/sec) elapsed = 0:0:01:22 / Wed May 13 10:19:24 2015
GPGPU-Sim uArch: cycles simulated: 240500  inst.: 2099402 (ipc= 8.7) sim_rate=25294 (inst/sec) elapsed = 0:0:01:23 / Wed May 13 10:19:25 2015
GPGPU-Sim uArch: cycles simulated: 244000  inst.: 2113186 (ipc= 8.7) sim_rate=25156 (inst/sec) elapsed = 0:0:01:24 / Wed May 13 10:19:26 2015
GPGPU-Sim uArch: cycles simulated: 247500  inst.: 2126240 (ipc= 8.6) sim_rate=25014 (inst/sec) elapsed = 0:0:01:25 / Wed May 13 10:19:27 2015
GPGPU-Sim PTX: 2200000 instructions simulated : ctaid=(0,0,0) tid=(14,0,0)
GPGPU-Sim uArch: cycles simulated: 251000  inst.: 2139930 (ipc= 8.5) sim_rate=24882 (inst/sec) elapsed = 0:0:01:26 / Wed May 13 10:19:28 2015
GPGPU-Sim uArch: cycles simulated: 254500  inst.: 2153417 (ipc= 8.5) sim_rate=24751 (inst/sec) elapsed = 0:0:01:27 / Wed May 13 10:19:29 2015
GPGPU-Sim uArch: cycles simulated: 258000  inst.: 2166973 (ipc= 8.4) sim_rate=24624 (inst/sec) elapsed = 0:0:01:28 / Wed May 13 10:19:30 2015
GPGPU-Sim uArch: cycles simulated: 261500  inst.: 2180401 (ipc= 8.3) sim_rate=24498 (inst/sec) elapsed = 0:0:01:29 / Wed May 13 10:19:31 2015
GPGPU-Sim uArch: cycles simulated: 265000  inst.: 2193952 (ipc= 8.3) sim_rate=24377 (inst/sec) elapsed = 0:0:01:30 / Wed May 13 10:19:32 2015
GPGPU-Sim uArch: cycles simulated: 268500  inst.: 2207379 (ipc= 8.2) sim_rate=24256 (inst/sec) elapsed = 0:0:01:31 / Wed May 13 10:19:33 2015
GPGPU-Sim uArch: cycles simulated: 272000  inst.: 2220393 (ipc= 8.2) sim_rate=24134 (inst/sec) elapsed = 0:0:01:32 / Wed May 13 10:19:34 2015
GPGPU-Sim uArch: cycles simulated: 275500  inst.: 2234657 (ipc= 8.1) sim_rate=24028 (inst/sec) elapsed = 0:0:01:33 / Wed May 13 10:19:35 2015
GPGPU-Sim PTX: 2300000 instructions simulated : ctaid=(0,0,0) tid=(21,0,0)
GPGPU-Sim uArch: cycles simulated: 279000  inst.: 2247856 (ipc= 8.1) sim_rate=23913 (inst/sec) elapsed = 0:0:01:34 / Wed May 13 10:19:36 2015
GPGPU-Sim uArch: cycles simulated: 282500  inst.: 2261406 (ipc= 8.0) sim_rate=23804 (inst/sec) elapsed = 0:0:01:35 / Wed May 13 10:19:37 2015
GPGPU-Sim uArch: cycles simulated: 286000  inst.: 2274749 (ipc= 8.0) sim_rate=23695 (inst/sec) elapsed = 0:0:01:36 / Wed May 13 10:19:38 2015
GPGPU-Sim uArch: cycles simulated: 289000  inst.: 2286616 (ipc= 7.9) sim_rate=23573 (inst/sec) elapsed = 0:0:01:37 / Wed May 13 10:19:39 2015
GPGPU-Sim uArch: cycles simulated: 292000  inst.: 2298352 (ipc= 7.9) sim_rate=23452 (inst/sec) elapsed = 0:0:01:38 / Wed May 13 10:19:40 2015
GPGPU-Sim uArch: cycles simulated: 295500  inst.: 2311588 (ipc= 7.8) sim_rate=23349 (inst/sec) elapsed = 0:0:01:39 / Wed May 13 10:19:41 2015
GPGPU-Sim uArch: cycles simulated: 299000  inst.: 2324657 (ipc= 7.8) sim_rate=23246 (inst/sec) elapsed = 0:0:01:40 / Wed May 13 10:19:42 2015
GPGPU-Sim PTX: 2400000 instructions simulated : ctaid=(0,0,0) tid=(32,0,0)
GPGPU-Sim uArch: cycles simulated: 302500  inst.: 2338054 (ipc= 7.7) sim_rate=23149 (inst/sec) elapsed = 0:0:01:41 / Wed May 13 10:19:43 2015
GPGPU-Sim uArch: cycles simulated: 306000  inst.: 2352018 (ipc= 7.7) sim_rate=23059 (inst/sec) elapsed = 0:0:01:42 / Wed May 13 10:19:44 2015
GPGPU-Sim uArch: cycles simulated: 309500  inst.: 2365516 (ipc= 7.6) sim_rate=22966 (inst/sec) elapsed = 0:0:01:43 / Wed May 13 10:19:45 2015
GPGPU-Sim uArch: cycles simulated: 312500  inst.: 2377035 (ipc= 7.6) sim_rate=22856 (inst/sec) elapsed = 0:0:01:44 / Wed May 13 10:19:46 2015
GPGPU-Sim uArch: cycles simulated: 315500  inst.: 2388510 (ipc= 7.6) sim_rate=22747 (inst/sec) elapsed = 0:0:01:45 / Wed May 13 10:19:47 2015
GPGPU-Sim uArch: cycles simulated: 318500  inst.: 2400272 (ipc= 7.5) sim_rate=22644 (inst/sec) elapsed = 0:0:01:46 / Wed May 13 10:19:48 2015
GPGPU-Sim uArch: cycles simulated: 322000  inst.: 2413846 (ipc= 7.5) sim_rate=22559 (inst/sec) elapsed = 0:0:01:47 / Wed May 13 10:19:49 2015
GPGPU-Sim uArch: cycles simulated: 324500  inst.: 2423401 (ipc= 7.5) sim_rate=22438 (inst/sec) elapsed = 0:0:01:48 / Wed May 13 10:19:50 2015
GPGPU-Sim PTX: 2500000 instructions simulated : ctaid=(0,0,0) tid=(21,0,0)
GPGPU-Sim uArch: cycles simulated: 327000  inst.: 2432749 (ipc= 7.4) sim_rate=22318 (inst/sec) elapsed = 0:0:01:49 / Wed May 13 10:19:51 2015
GPGPU-Sim uArch: cycles simulated: 330000  inst.: 2444559 (ipc= 7.4) sim_rate=22223 (inst/sec) elapsed = 0:0:01:50 / Wed May 13 10:19:52 2015
GPGPU-Sim uArch: cycles simulated: 332000  inst.: 2452603 (ipc= 7.4) sim_rate=22095 (inst/sec) elapsed = 0:0:01:51 / Wed May 13 10:19:53 2015
GPGPU-Sim uArch: cycles simulated: 335000  inst.: 2463942 (ipc= 7.4) sim_rate=21999 (inst/sec) elapsed = 0:0:01:52 / Wed May 13 10:19:54 2015
GPGPU-Sim uArch: cycles simulated: 338500  inst.: 2477201 (ipc= 7.3) sim_rate=21922 (inst/sec) elapsed = 0:0:01:53 / Wed May 13 10:19:55 2015
GPGPU-Sim uArch: cycles simulated: 342000  inst.: 2490926 (ipc= 7.3) sim_rate=21850 (inst/sec) elapsed = 0:0:01:54 / Wed May 13 10:19:56 2015
GPGPU-Sim uArch: cycles simulated: 345000  inst.: 2502332 (ipc= 7.3) sim_rate=21759 (inst/sec) elapsed = 0:0:01:55 / Wed May 13 10:19:57 2015
GPGPU-Sim uArch: cycles simulated: 348500  inst.: 2515725 (ipc= 7.2) sim_rate=21687 (inst/sec) elapsed = 0:0:01:56 / Wed May 13 10:19:58 2015
GPGPU-Sim PTX: 2600000 instructions simulated : ctaid=(0,0,0) tid=(33,0,0)
GPGPU-Sim uArch: cycles simulated: 352000  inst.: 2529138 (ipc= 7.2) sim_rate=21616 (inst/sec) elapsed = 0:0:01:57 / Wed May 13 10:19:59 2015
GPGPU-Sim uArch: cycles simulated: 355500  inst.: 2542779 (ipc= 7.2) sim_rate=21548 (inst/sec) elapsed = 0:0:01:58 / Wed May 13 10:20:00 2015
GPGPU-Sim uArch: cycles simulated: 359000  inst.: 2556314 (ipc= 7.1) sim_rate=21481 (inst/sec) elapsed = 0:0:01:59 / Wed May 13 10:20:01 2015
GPGPU-Sim uArch: cycles simulated: 362500  inst.: 2569567 (ipc= 7.1) sim_rate=21413 (inst/sec) elapsed = 0:0:02:00 / Wed May 13 10:20:02 2015
GPGPU-Sim uArch: cycles simulated: 366000  inst.: 2583393 (ipc= 7.1) sim_rate=21350 (inst/sec) elapsed = 0:0:02:01 / Wed May 13 10:20:03 2015
GPGPU-Sim uArch: cycles simulated: 369500  inst.: 2596471 (ipc= 7.0) sim_rate=21282 (inst/sec) elapsed = 0:0:02:02 / Wed May 13 10:20:04 2015
GPGPU-Sim uArch: cycles simulated: 373000  inst.: 2610285 (ipc= 7.0) sim_rate=21221 (inst/sec) elapsed = 0:0:02:03 / Wed May 13 10:20:05 2015
GPGPU-Sim PTX: 2700000 instructions simulated : ctaid=(0,0,0) tid=(13,0,0)
GPGPU-Sim uArch: cycles simulated: 376500  inst.: 2623561 (ipc= 7.0) sim_rate=21157 (inst/sec) elapsed = 0:0:02:04 / Wed May 13 10:20:06 2015
GPGPU-Sim uArch: cycles simulated: 380000  inst.: 2637710 (ipc= 6.9) sim_rate=21101 (inst/sec) elapsed = 0:0:02:05 / Wed May 13 10:20:07 2015
GPGPU-Sim uArch: cycles simulated: 383500  inst.: 2651068 (ipc= 6.9) sim_rate=21040 (inst/sec) elapsed = 0:0:02:06 / Wed May 13 10:20:08 2015
GPGPU-Sim uArch: cycles simulated: 387000  inst.: 2664264 (ipc= 6.9) sim_rate=20978 (inst/sec) elapsed = 0:0:02:07 / Wed May 13 10:20:09 2015
GPGPU-Sim uArch: cycles simulated: 390500  inst.: 2677575 (ipc= 6.9) sim_rate=20918 (inst/sec) elapsed = 0:0:02:08 / Wed May 13 10:20:10 2015
GPGPU-Sim uArch: cycles simulated: 394000  inst.: 2691444 (ipc= 6.8) sim_rate=20863 (inst/sec) elapsed = 0:0:02:09 / Wed May 13 10:20:11 2015
GPGPU-Sim uArch: cycles simulated: 397500  inst.: 2705167 (ipc= 6.8) sim_rate=20808 (inst/sec) elapsed = 0:0:02:10 / Wed May 13 10:20:12 2015
GPGPU-Sim PTX: 2800000 instructions simulated : ctaid=(0,0,0) tid=(12,0,0)
GPGPU-Sim uArch: cycles simulated: 401000  inst.: 2718510 (ipc= 6.8) sim_rate=20751 (inst/sec) elapsed = 0:0:02:11 / Wed May 13 10:20:13 2015
GPGPU-Sim uArch: cycles simulated: 404500  inst.: 2732173 (ipc= 6.8) sim_rate=20698 (inst/sec) elapsed = 0:0:02:12 / Wed May 13 10:20:14 2015
GPGPU-Sim uArch: cycles simulated: 408000  inst.: 2745548 (ipc= 6.7) sim_rate=20643 (inst/sec) elapsed = 0:0:02:13 / Wed May 13 10:20:15 2015
GPGPU-Sim uArch: cycles simulated: 411500  inst.: 2759026 (ipc= 6.7) sim_rate=20589 (inst/sec) elapsed = 0:0:02:14 / Wed May 13 10:20:16 2015
GPGPU-Sim uArch: cycles simulated: 415000  inst.: 2772820 (ipc= 6.7) sim_rate=20539 (inst/sec) elapsed = 0:0:02:15 / Wed May 13 10:20:17 2015
GPGPU-Sim uArch: cycles simulated: 418500  inst.: 2786209 (ipc= 6.7) sim_rate=20486 (inst/sec) elapsed = 0:0:02:16 / Wed May 13 10:20:18 2015
GPGPU-Sim uArch: cycles simulated: 422000  inst.: 2799800 (ipc= 6.6) sim_rate=20436 (inst/sec) elapsed = 0:0:02:17 / Wed May 13 10:20:19 2015
GPGPU-Sim uArch: cycles simulated: 425500  inst.: 2813226 (ipc= 6.6) sim_rate=20385 (inst/sec) elapsed = 0:0:02:18 / Wed May 13 10:20:20 2015
GPGPU-Sim PTX: 2900000 instructions simulated : ctaid=(0,0,0) tid=(1,0,0)
GPGPU-Sim uArch: cycles simulated: 429000  inst.: 2827049 (ipc= 6.6) sim_rate=20338 (inst/sec) elapsed = 0:0:02:19 / Wed May 13 10:20:21 2015
GPGPU-Sim uArch: cycles simulated: 432500  inst.: 2840372 (ipc= 6.6) sim_rate=20288 (inst/sec) elapsed = 0:0:02:20 / Wed May 13 10:20:22 2015
GPGPU-Sim uArch: cycles simulated: 435500  inst.: 2851612 (ipc= 6.5) sim_rate=20224 (inst/sec) elapsed = 0:0:02:21 / Wed May 13 10:20:23 2015
GPGPU-Sim uArch: cycles simulated: 439000  inst.: 2865304 (ipc= 6.5) sim_rate=20178 (inst/sec) elapsed = 0:0:02:22 / Wed May 13 10:20:24 2015
GPGPU-Sim uArch: cycles simulated: 442500  inst.: 2878696 (ipc= 6.5) sim_rate=20130 (inst/sec) elapsed = 0:0:02:23 / Wed May 13 10:20:25 2015
GPGPU-Sim uArch: cycles simulated: 446000  inst.: 2892176 (ipc= 6.5) sim_rate=20084 (inst/sec) elapsed = 0:0:02:24 / Wed May 13 10:20:26 2015
GPGPU-Sim uArch: cycles simulated: 449500  inst.: 2905670 (ipc= 6.5) sim_rate=20039 (inst/sec) elapsed = 0:0:02:25 / Wed May 13 10:20:27 2015
[...]
gpgpu_stall_shd_mem[l_mem_ld][mshr_rc] = 0
gpgpu_stall_shd_mem[l_mem_ld][icnt_rc] = 0
gpgpu_stall_shd_mem[l_mem_ld][wb_icnt_rc] = 0
gpgpu_stall_shd_mem[l_mem_ld][wb_rsrv_fail] = 0
gpgpu_stall_shd_mem[l_mem_st][mshr_rc] = 0
gpgpu_stall_shd_mem[l_mem_st][icnt_rc] = 0
gpgpu_stall_shd_mem[l_mem_ld][wb_icnt_rc] = 0
gpgpu_stall_shd_mem[l_mem_ld][wb_rsrv_fail] = 0
gpu_reg_bank_conflict_stalls = 0
Warp Occupancy Distribution:
Stall:1	W0_Idle:189899	W0_Scoreboard:1718223	W1:58343	W2:49239	W3:57113	W4:73868	W5:66801	W6:41149	W7:18141	W8:47111	W9:40299	W10:6147	W11:7205	W12:10051	W13:11265	W14:14310	W15:15910	W16:17569	W17:13601	W18:11656	W19:10144	W20:5919	W21:3097	W22:2843	W23:1751	W24:1090	W25:352	W26:883	W27:60	W28:420	W29:320	W30:260	W31:4540	W32:97340
traffic_breakdown_coretomem[CONST_ACC_R] = 120 {8:15,}
traffic_breakdown_coretomem[GLOBAL_ACC_R] = 72 {8:9,}
traffic_breakdown_coretomem[GLOBAL_ACC_W] = 20480 {40:512,}
traffic_breakdown_coretomem[INST_ACC_R] = 800 {8:100,}
traffic_breakdown_memtocore[CONST_ACC_R] = 1080 {72:15,}
traffic_breakdown_memtocore[GLOBAL_ACC_R] = 1224 {136:9,}
traffic_breakdown_memtocore[GLOBAL_ACC_W] = 4096 {8:512,}
traffic_breakdown_memtocore[INST_ACC_R] = 13600 {136:100,}
maxmrqlatency = 21 
maxdqlatency = 0 
maxmflatency = 381 
averagemflatency = 178 
max_icnt2mem_latency = 113 
max_icnt2sh_latency = 2461724 
mrq_lat_table:39 	0 	10 	7 	2 	0 	0 	0 	0 	0 	0 	0 	0 	0 	0 	0 	0 	0 	0 	0 	0 	0 	0 	0 	0 	0 	0 	0 	0 	0 	0 	0 	
dq_lat_table:0 	0 	0 	0 	0 	0 	0 	0 	0 	0 	0 	0 	0 	0 	0 	0 	0 	0 	0 	0 	0 	0 	0 	0 	0 	0 	0 	0 	0 	0 	0 	0 	
mf_lat_table:0 	0 	0 	0 	0 	0 	0 	480 	56 	0 	0 	0 	0 	0 	0 	0 	0 	0 	0 	0 	0 	0 	0 	0 	0 	0 	0 	0 	0 	0 	0 	0 	
icnt2mem_lat_table:0 	0 	0 	407 	105 	100 	24 	0 	0 	0 	0 	0 	0 	0 	0 	0 	0 	0 	0 	0 	0 	0 	0 	0 	
icnt2sh_lat_table:0 	0 	0 	11 	13 	0 	0 	0 	0 	0 	0 	132 	123 	0 	0 	0 	0 	0 	0 	0 	256 	1 	0 	0 	
mf_lat_pw_table:0 	0 	0 	0 	0 	0 	0 	16 	4 	0 	0 	0 	0 	0 	0 	0 	0 	0 	0 	0 	0 	0 	0 	0 	0 	0 	0 	0 	0 	0 	0 	0 	
maximum concurrent accesses to same row:
dram[0]:         1         0         0         0         0         0         0         0         0         0         0         0         0         0         0         0 
dram[1]:         0         0         0         0         0         0         0         0         0         0         0         0         0         0         0         0 
dram[2]:         0         0         0         0         0         0         0         0         0         0         0         0         0         0         0         0 
dram[3]:         0         0         0         0         0         0         0         0         0         0         0         0         0         0         0         0 
dram[4]:         0         0         0         0         0         0         0         0         0         0         0         0         0         0         0         0 
dram[5]:         0         0         0         0         0         0         0         0         0         0         0         0         0         0         0         0 
maximum service time to same row:
dram[0]:       314         0         0         0         0         0         0         0         0         0         0         0         0         0         0         0 
dram[1]:      1744         0         0         0         0         0         0         0         0         0         0         0         0         0         0         0 
dram[2]:      2432      2465         0         0         0      1168         0         0         0      1460         0         0         0      1749         0         0 
dram[3]:       829      3241         0         0         0         0         0         0         0         0         0         0         0         0         0         0 
dram[4]:      1491      4021         0         0         0         0         0         0         0         0         0         0         0         0         0         0 
dram[5]:      2166      5115         0         0         0         0         0         0         0         0         0         0         0         0         0         0 
average row accesses per activate:
dram[0]:  1.000000      -nan      -nan      -nan      -nan      -nan      -nan      -nan      -nan      -nan      -nan      -nan      -nan      -nan      -nan      -nan 
dram[1]:  2.000000      -nan      -nan      -nan      -nan      -nan      -nan      -nan      -nan      -nan      -nan      -nan      -nan      -nan      -nan      -nan 
dram[2]:  2.000000 10.000000      -nan      -nan      -nan  2.000000      -nan      -nan      -nan  2.000000      -nan      -nan      -nan  2.000000      -nan      -nan 
dram[3]:  2.000000 10.000000      -nan      -nan      -nan      -nan      -nan      -nan      -nan      -nan      -nan      -nan      -nan      -nan      -nan      -nan 
dram[4]:  2.000000 10.000000      -nan      -nan      -nan      -nan      -nan      -nan      -nan      -nan      -nan      -nan      -nan      -nan      -nan      -nan 
dram[5]:  1.000000 10.000000      -nan      -nan      -nan      -nan      -nan      -nan      -nan      -nan      -nan      -nan      -nan      -nan      -nan      -nan 
average row locality = 58/15 = 3.866667
number of total memory accesses made:
dram[0]:         0         0         0         0         0         0         0         0         0         0         0         0         0         0         0         0 
dram[1]:         0         0         0         0         0         0         0         0         0         0         0         0         0         0         0         0 
dram[2]:         0         0         0         0         0         0         0         0         0         0         0         0         0         0         0         0 
dram[3]:         0         0         0         0         0         0         0         0         0         0         0         0         0         0         0         0 
dram[4]:         0         0         0         0         0         0         0         0         0         0         0         0         0         0         0         0 
dram[5]:         0         0         0         0         0         0         0         0         0         0         0         0         0         0         0         0 
total accesses: 0
min_bank_accesses = 0!
min_chip_accesses = 0!
number of total read accesses:
dram[0]:         3         0         0         0         0         0         0         0         0         0         0         0         0         0         0         0 
dram[1]:         2         0         0         0         0         0         0         0         0         0         0         0         0         0         0         0 
dram[2]:         2         2         0         0         0         2         0         0         0         2         0         0         0         2         0         0 
dram[3]:         2         2         0         0         0         0         0         0         0         0         0         0         0         0         0         0 
dram[4]:         2         2         0         0         0         0         0         0         0         0         0         0         0         0         0         0 
dram[5]:         1         2         0         0         0         0         0         0         0         0         0         0         0         0         0         0 
total reads: 26
min_bank_accesses = 0!
chip skew: 10/2 = 5.00
number of total write accesses:
dram[0]:         0         0         0         0         0         0         0         0         0         0         0         0         0         0         0         0 
dram[1]:         0         0         0         0         0         0         0         0         0         0         0         0         0         0         0         0 
dram[2]:         0         8         0         0         0         0         0         0         0         0         0         0         0         0         0         0 
dram[3]:         0         8         0         0         0         0         0         0         0         0         0         0         0         0         0         0 
dram[4]:         0         8         0         0         0         0         0         0         0         0         0         0         0         0         0         0 
dram[5]:         0         8         0         0         0         0         0         0         0         0         0         0         0         0         0         0 
total reads: 32
min_bank_accesses = 0!
min_chip_accesses = 0!
average mf latency per bank:
dram[0]:       1300    none      none      none      none      none      none      none      none      none      none      none      none      none      none      none  
dram[1]:          0    none      none      none      none      none      none      none      none      none      none      none      none      none      none      none  
dram[2]:          0      2694    none      none      none         342    none      none      none         340    none      none      none         359    none      none  
dram[3]:          0      2237    none      none      none      none      none      none      none      none      none      none      none      none      none      none  
dram[4]:          0      2063    none      none      none      none      none      none      none      none      none      none      none      none      none      none  
dram[5]:          0      1956    none      none      none      none      none      none      none      none      none      none      none      none      none      none  
maximum mf latency per bank:
dram[0]:        278         0         0         0         0         0         0         0         0         0         0         0         0         0         0         0
dram[1]:          0         0         0         0         0         0         0         0         0         0         0         0         0         0         0         0
dram[2]:          0       381         0         0         0       273         0         0         0       269         0         0         0       269         0         0
dram[3]:          0       267         0         0         0         0         0         0         0         0         0         0         0         0         0         0
dram[4]:          0       262         0         0         0         0         0         0         0         0         0         0         0         0         0         0
dram[5]:          0       264         0         0         0         0         0         0         0         0         0         0         0         0         0         0

Number of Memory Banks Accessed per Memory Operation per Warp (from 0):
0	0	0	0	0	0	0	0	0	0	0	0	0	0	0	0	0	0	0	0	0	0	0	0	0	0	0	0	0	0	0	0	0	0	0	0	0	0	0	0	0	0	0	0	0	0	0	0	0	0	0	0	0	0	0	0	0	0	0	0	0	0	0	0	0	0	0	0	0	0	0	0	0	0	0	0	0	0	0	0	0	0	0	0	0	0	0	0	0	0	0	0	0	0	0	0	
Average # of Memory Banks Accessed per Memory Operation per Warp=-nan

position of mrq chosen
0	0	0	0	0	0	0	0	0	0	0	0	0	0	0	0	

average position of mrq chosen = -nan
Memory Partition 0: 
Cache L2_bank_000:
MSHR contents

Cache L2_bank_001:
MSHR contents

In Dram Latency Queue (total = 0): 
DRAM[0]: 16 bks, busW=4 BL=8 CL=12, tRRD=2 tCCD=6, tRCD=12 tRAS=28 tRP=12 tRC=40
n_cmd=3249476 n_nop=3249465 n_act=3 n_pre=2 n_req=3 n_rd=6 n_write=0 bw_util=3.693e-06
n_activity=144 dram_eff=0.08333
bk0: 6a 3249404i bk1: 0a 3249474i bk2: 0a 3249476i bk3: 0a 3249476i bk4: 0a 3249476i bk5: 0a 3249476i bk6: 0a 3249476i bk7: 0a 3249476i bk8: 0a 3249476i bk9: 0a 3249476i bk10: 0a 3249476i bk11: 0a 3249476i bk12: 0a 3249476i bk13: 0a 3249476i bk14: 0a 3249476i bk15: 0a 3249476i 
dram_util_bins: 0 0 0 0 0 0 0 0 0 0
dram_eff_bins: 0 0 0 0 0 0 0 0 0 0
mrqq: max=0 avg=0
Memory Partition 1: 
Cache L2_bank_002:
MSHR contents

Cache L2_bank_003:
MSHR contents

In Dram Latency Queue (total = 0): 
DRAM[1]: 16 bks, busW=4 BL=8 CL=12, tRRD=2 tCCD=6, tRCD=12 tRAS=28 tRP=12 tRC=40
n_cmd=3249476 n_nop=3249471 n_act=1 n_pre=0 n_req=2 n_rd=4 n_write=0 bw_util=2.462e-06
n_activity=55 dram_eff=0.1455
bk0: 4a 3249456i bk1: 0a 3249476i bk2: 0a 3249476i bk3: 0a 3249476i bk4: 0a 3249476i bk5: 0a 3249476i bk6: 0a 3249476i bk7: 0a 3249476i bk8: 0a 3249476i bk9: 0a 3249476i bk10: 0a 3249476i bk11: 0a 3249476i bk12: 0a 3249476i bk13: 0a 3249476i bk14: 0a 3249476i bk15: 0a 3249476i 
dram_util_bins: 0 0 0 0 0 0 0 0 0 0
dram_eff_bins: 0 0 0 0 0 0 0 0 0 0
mrqq: max=0 avg=0
Memory Partition 2: 
Cache L2_bank_004:
MSHR contents

Cache L2_bank_005:
MSHR contents

In Dram Latency Queue (total = 0): 
DRAM[2]: 16 bks, busW=4 BL=8 CL=12, tRRD=2 tCCD=6, tRCD=12 tRAS=28 tRP=12 tRC=40
n_cmd=3249476 n_nop=3249443 n_act=5 n_pre=0 n_req=18 n_rd=20 n_write=8 bw_util=1.723e-05
n_activity=268 dram_eff=0.209
bk0: 4a 3249456i bk1: 4a 3249404i bk2: 0a 3249477i bk3: 0a 3249477i bk4: 0a 3249477i bk5: 4a 3249454i bk6: 0a 3249475i bk7: 0a 3249475i bk8: 0a 3249476i bk9: 4a 3249453i bk10: 0a 3249474i bk11: 0a 3249475i bk12: 0a 3249477i bk13: 4a 3249454i bk14: 0a 3249475i bk15: 0a 3249475i 
dram_util_bins: 0 0 0 0 0 0 0 0 0 0
dram_eff_bins: 0 0 0 0 0 0 0 0 0 0
mrqq: max=3 avg=4.46226e-05
Memory Partition 3: 
Cache L2_bank_006:
MSHR contents

Cache L2_bank_007:
MSHR contents

In Dram Latency Queue (total = 0): 
DRAM[3]: 16 bks, busW=4 BL=8 CL=12, tRRD=2 tCCD=6, tRCD=12 tRAS=28 tRP=12 tRC=40
n_cmd=3249476 n_nop=3249458 n_act=2 n_pre=0 n_req=12 n_rd=8 n_write=8 bw_util=9.848e-06
n_activity=156 dram_eff=0.2051
bk0: 4a 3249456i bk1: 4a 3249407i bk2: 0a 3249475i bk3: 0a 3249476i bk4: 0a 3249476i bk5: 0a 3249476i bk6: 0a 3249476i bk7: 0a 3249476i bk8: 0a 3249476i bk9: 0a 3249476i bk10: 0a 3249476i bk11: 0a 3249476i bk12: 0a 3249476i bk13: 0a 3249476i bk14: 0a 3249476i bk15: 0a 3249476i 
dram_util_bins: 0 0 0 0 0 0 0 0 0 0
dram_eff_bins: 0 0 0 0 0 0 0 0 0 0
mrqq: max=2 avg=1.10787e-05
Memory Partition 4: 
Cache L2_bank_008:
MSHR contents

Cache L2_bank_009:
MSHR contents

In Dram Latency Queue (total = 0): 
DRAM[4]: 16 bks, busW=4 BL=8 CL=12, tRRD=2 tCCD=6, tRCD=12 tRAS=28 tRP=12 tRC=40
n_cmd=3249476 n_nop=3249458 n_act=2 n_pre=0 n_req=12 n_rd=8 n_write=8 bw_util=9.848e-06
n_activity=176 dram_eff=0.1818
bk0: 4a 3249456i bk1: 4a 3249422i bk2: 0a 3249475i bk3: 0a 3249476i bk4: 0a 3249476i bk5: 0a 3249476i bk6: 0a 3249476i bk7: 0a 3249476i bk8: 0a 3249476i bk9: 0a 3249476i bk10: 0a 3249476i bk11: 0a 3249476i bk12: 0a 3249476i bk13: 0a 3249476i bk14: 0a 3249476i bk15: 0a 3249476i 
dram_util_bins: 0 0 0 0 0 0 0 0 0 0
dram_eff_bins: 0 0 0 0 0 0 0 0 0 0
mrqq: max=1 avg=4.00064e-06
Memory Partition 5: 
Cache L2_bank_010:
MSHR contents

Cache L2_bank_011:
MSHR contents

In Dram Latency Queue (total = 0): 
DRAM[5]: 16 bks, busW=4 BL=8 CL=12, tRRD=2 tCCD=6, tRCD=12 tRAS=28 tRP=12 tRC=40
n_cmd=3249476 n_nop=3249460 n_act=2 n_pre=0 n_req=11 n_rd=6 n_write=8 bw_util=8.617e-06
n_activity=166 dram_eff=0.1687
bk0: 2a 3249460i bk1: 4a 3249422i bk2: 0a 3249476i bk3: 0a 3249476i bk4: 0a 3249476i bk5: 0a 3249476i bk6: 0a 3249476i bk7: 0a 3249476i bk8: 0a 3249476i bk9: 0a 3249476i bk10: 0a 3249476i bk11: 0a 3249476i bk12: 0a 3249476i bk13: 0a 3249476i bk14: 0a 3249476i bk15: 0a 3249476i 
dram_util_bins: 0 0 0 0 0 0 0 0 0 0
dram_eff_bins: 0 0 0 0 0 0 0 0 0 0
mrqq: max=1 avg=5.53935e-06

========= L2 cache stats =========
L2_cache_bank[0]: Access = 32, Miss = 3, Miss_rate = 0.094, Pending_hits = 6, Reservation_fails = 225
L2_cache_bank[1]: Access = 0, Miss = 0, Miss_rate = -nan, Pending_hits = 0, Reservation_fails = 0
L2_cache_bank[2]: Access = 4, Miss = 2, Miss_rate = 0.500, Pending_hits = 0, Reservation_fails = 0
L2_cache_bank[3]: Access = 0, Miss = 0, Miss_rate = -nan, Pending_hits = 0, Reservation_fails = 0
L2_cache_bank[4]: Access = 4, Miss = 2, Miss_rate = 0.500, Pending_hits = 0, Reservation_fails = 0
L2_cache_bank[5]: Access = 137, Miss = 8, Miss_rate = 0.058, Pending_hits = 6, Reservation_fails = 217
L2_cache_bank[6]: Access = 30, Miss = 2, Miss_rate = 0.067, Pending_hits = 6, Reservation_fails = 205
L2_cache_bank[7]: Access = 128, Miss = 2, Miss_rate = 0.016, Pending_hits = 6, Reservation_fails = 164
L2_cache_bank[8]: Access = 30, Miss = 2, Miss_rate = 0.067, Pending_hits = 6, Reservation_fails = 190
L2_cache_bank[9]: Access = 128, Miss = 2, Miss_rate = 0.016, Pending_hits = 6, Reservation_fails = 163
L2_cache_bank[10]: Access = 15, Miss = 1, Miss_rate = 0.067, Pending_hits = 3, Reservation_fails = 103
L2_cache_bank[11]: Access = 128, Miss = 2, Miss_rate = 0.016, Pending_hits = 6, Reservation_fails = 12
L2_total_cache_accesses = 636
L2_total_cache_misses = 26
L2_total_cache_miss_rate = 0.0409
L2_total_cache_pending_hits = 45
L2_total_cache_reservation_fails = 1279
L2_total_cache_breakdown:
	L2_cache_stats_breakdown[GLOBAL_ACC_R][HIT] = 3
	L2_cache_stats_breakdown[GLOBAL_ACC_R][MISS] = 6
	L2_cache_stats_breakdown[CONST_ACC_R][HIT] = 11
	L2_cache_stats_breakdown[CONST_ACC_R][HIT_RESERVED] = 3
	L2_cache_stats_breakdown[CONST_ACC_R][MISS] = 1
	L2_cache_stats_breakdown[CONST_ACC_R][RESERVATION_FAIL] = 109
	L2_cache_stats_breakdown[GLOBAL_ACC_W][HIT] = 480
	L2_cache_stats_breakdown[GLOBAL_ACC_W][HIT_RESERVED] = 24
	L2_cache_stats_breakdown[GLOBAL_ACC_W][MISS] = 8
	L2_cache_stats_breakdown[GLOBAL_ACC_W][RESERVATION_FAIL] = 556
	L2_cache_stats_breakdown[INST_ACC_R][HIT] = 71
	L2_cache_stats_breakdown[INST_ACC_R][HIT_RESERVED] = 18
	L2_cache_stats_breakdown[INST_ACC_R][MISS] = 11
	L2_cache_stats_breakdown[INST_ACC_R][RESERVATION_FAIL] = 614
L2_cache_data_port_util = 0.000
L2_cache_fill_port_util = 0.000

icnt_total_pkts_mem_to_simt=1102
icnt_total_pkts_simt_to_mem=1148
LD_mem_lat_dist  0 0 0 0 0 0 0 0 0 0 0 0 0 0 0 0 0 0 0 0 0 0 0 0 0 0 0
ST_mem_lat_dist  0 0 0 0 0 0 0 0 0 0 0 0 0 0 0 0 0 0 0 0 0 0 0 0 0 0 0
----------------------------Interconnect-DETAILS--------------------------------
Class 0:
Packet latency average = 16.1723
	minimum = 6
	maximum = 110
Network latency average = 16.1705
	minimum = 6
	maximum = 110
Slowest packet = 787
Flit latency average = 18.4056
	minimum = 6
	maximum = 109
Slowest flit = 1523
Fragmentation average = 0
	minimum = 0
	maximum = 0
Injected packet rate average = 1.60854e-05
	minimum = 0 (at node 16)
	maximum = 5.51108e-05 (at node 20)
Accepted packet rate average = 1.60854e-05
	minimum = 0 (at node 16)
	maximum = 5.51108e-05 (at node 20)
Injected flit rate average = 2.48593e-05
	minimum = 0 (at node 16)
	maximum = 6.49814e-05 (at node 20)
Accepted flit rate average= 2.48593e-05
	minimum = 0 (at node 16)
	maximum = 0.000107754 (at node 20)
Injected packet length average = 1.54545
Accepted packet length average = 1.54545
Total in-flight flits = 0 (0 measured)
====== Overall Traffic Statistics ======
====== Traffic class 0 ======
Packet latency average = 13.7555 (2 samples)
	minimum = 6 (2 samples)
	maximum = 84 (2 samples)
Network latency average = 13.3332 (2 samples)
	minimum = 6 (2 samples)
	maximum = 84 (2 samples)
Flit latency average = 14.0508 (2 samples)
	minimum = 6 (2 samples)
	maximum = 83 (2 samples)
Fragmentation average = 0 (2 samples)
	minimum = 0 (2 samples)
	maximum = 0 (2 samples)
Injected packet rate average = 1.91004e-05 (2 samples)
	minimum = 0 (2 samples)
	maximum = 5.56455e-05 (2 samples)
Accepted packet rate average = 1.91004e-05 (2 samples)
	minimum = 0 (2 samples)
	maximum = 5.56455e-05 (2 samples)
Injected flit rate average = 3.37424e-05 (2 samples)
	minimum = 0 (2 samples)
	maximum = 9.26837e-05 (2 samples)
Accepted flit rate average = 3.37424e-05 (2 samples)
	minimum = 0 (2 samples)
	maximum = 0.000107649 (2 samples)
Injected packet size average = 1.76658 (2 samples)
Accepted packet size average = 1.76658 (2 samples)
Hops average = 1 (2 samples)
----------------------------END-of-Interconnect-DETAILS-------------------------


gpgpu_simulation_time = 0 days, 0 hrs, 11 min, 36 sec (696 sec)
gpgpu_simulation_rate = 10391 (inst/sec)
gpgpu_simulation_rate = 3536 (cycle/sec)
GPU: 11 queen = 2680  time = 694976.250000 msec
