

        *** GPGPU-Sim Simulator Version 3.2.2  [build 0] ***


GPGPU-Sim PTX: simulation mode 0 (can change with PTX_SIM_MODE_FUNC environment variable:
               1=functional simulation only, 0=detailed performance simulator)
GPGPU-Sim: Configuration options:

-network_mode                           1 # Interconnection network mode
-inter_config_file   config_fermi_islip.icnt # Interconnection network config file
-gpgpu_ptx_use_cuobjdump                    1 # Use cuobjdump to extract ptx and sass from binaries
-gpgpu_experimental_lib_support                    0 # Try to extract code from cuda libraries [Broken because of unknown cudaGetExportTable]
-gpgpu_ptx_convert_to_ptxplus                    0 # Convert SASS (native ISA) to ptxplus and run ptxplus
-gpgpu_ptx_force_max_capability                   20 # Force maximum compute capability
-gpgpu_ptx_inst_debug_to_file                    0 # Dump executed instructions' debug information to file
-gpgpu_ptx_inst_debug_file       inst_debug.txt # Executed instructions' debug output file
-gpgpu_ptx_inst_debug_thread_uid                    1 # Thread UID for executed instructions' debug output
-gpgpu_simd_model                       1 # 1 = post-dominator
-gpgpu_shader_core_pipeline          1536:256:32 # shader core pipeline config, i.e., {<nthread>:<warpsize>}
-gpgpu_tex_cache:l1  4:128:24,L:R:m:N:L,F:128:4,128:2 # per-shader L1 texture cache  (READ-ONLY) config  {<nsets>:<bsize>:<assoc>,<rep>:<wr>:<alloc>:<wr_alloc>,<mshr>:<N>:<merge>,<mq>:<rf>}
-gpgpu_const_cache:l1 64:64:2,L:R:f:N:L,A:2:32,4 # per-shader L1 constant memory cache  (READ-ONLY) config  {<nsets>:<bsize>:<assoc>,<rep>:<wr>:<alloc>:<wr_alloc>,<mshr>:<N>:<merge>,<mq>} 
-gpgpu_cache:il1     4:128:4,L:R:f:N:L,A:2:32,4 # shader L1 instruction cache config  {<nsets>:<bsize>:<assoc>,<rep>:<wr>:<alloc>:<wr_alloc>,<mshr>:<N>:<merge>,<mq>} 
-gpgpu_cache:dl1     32:128:4,L:L:m:N:H,A:32:8,8 # per-shader L1 data cache config  {<nsets>:<bsize>:<assoc>,<rep>:<wr>:<alloc>:<wr_alloc>,<mshr>:<N>:<merge>,<mq> | none}
-gpgpu_cache:dl1PrefL1                 none # per-shader L1 data cache config  {<nsets>:<bsize>:<assoc>,<rep>:<wr>:<alloc>:<wr_alloc>,<mshr>:<N>:<merge>,<mq> | none}
-gpgpu_cache:dl1PreShared                 none # per-shader L1 data cache config  {<nsets>:<bsize>:<assoc>,<rep>:<wr>:<alloc>:<wr_alloc>,<mshr>:<N>:<merge>,<mq> | none}
-gmem_skip_L1D                          0 # global memory access skip L1D cache (implements -Xptxas -dlcm=cg, default=no skip)
-gpgpu_perfect_mem                      0 # enable perfect memory mode (no cache miss)
-n_regfile_gating_group                    4 # group of lanes that should be read/written together)
-gpgpu_clock_gated_reg_file                    0 # enable clock gated reg file for power calculations
-gpgpu_clock_gated_lanes                    0 # enable clock gated lanes for power calculations
-gpgpu_shader_registers                32768 # Number of registers per shader core. Limits number of concurrent CTAs. (default 8192)
-gpgpu_shader_cta                       8 # Maximum number of concurrent CTAs in shader (default 8)
-gpgpu_num_cta_barriers                   16 # Maximum number of named barriers per CTA (default 16)
-gpgpu_n_clusters                      15 # number of processing clusters
-gpgpu_n_cores_per_cluster                    1 # number of simd cores per cluster
-gpgpu_n_cluster_ejection_buffer_size                    8 # number of packets in ejection buffer
-gpgpu_n_ldst_response_buffer_size                    2 # number of response packets in ld/st unit ejection buffer
-gpgpu_shmem_size                   16384 # Size of shared memory per shader core (default 16kB)
-gpgpu_shmem_size                   49152 # Size of shared memory per shader core (default 16kB)
-gpgpu_shmem_size_PrefL1                16384 # Size of shared memory per shader core (default 16kB)
-gpgpu_shmem_size_PrefShared                16384 # Size of shared memory per shader core (default 16kB)
-gpgpu_shmem_num_banks                   32 # Number of banks in the shared memory in each shader core (default 16)
-gpgpu_shmem_limited_broadcast                    0 # Limit shared memory to do one broadcast per cycle (default on)
-gpgpu_shmem_warp_parts                    1 # Number of portions a warp is divided into for shared memory bank conflict check 
-gpgpu_warpdistro_shader                   -1 # Specify which shader core to collect the warp size distribution from
-gpgpu_warp_issue_shader                    0 # Specify which shader core to collect the warp issue distribution from
-gpgpu_local_mem_map                    1 # Mapping from local memory space address to simulated GPU physical address space (default = enabled)
-gpgpu_num_reg_banks                   16 # Number of register banks (default = 8)
-gpgpu_reg_bank_use_warp_id                    0 # Use warp ID in mapping registers to banks (default = off)
-gpgpu_operand_collector_num_units_sp                    6 # number of collector units (default = 4)
-gpgpu_operand_collector_num_units_sfu                    8 # number of collector units (default = 4)
-gpgpu_operand_collector_num_units_mem                    2 # number of collector units (default = 2)
-gpgpu_operand_collector_num_units_gen                    0 # number of collector units (default = 0)
-gpgpu_operand_collector_num_in_ports_sp                    2 # number of collector unit in ports (default = 1)
-gpgpu_operand_collector_num_in_ports_sfu                    1 # number of collector unit in ports (default = 1)
-gpgpu_operand_collector_num_in_ports_mem                    1 # number of collector unit in ports (default = 1)
-gpgpu_operand_collector_num_in_ports_gen                    0 # number of collector unit in ports (default = 0)
-gpgpu_operand_collector_num_out_ports_sp                    2 # number of collector unit in ports (default = 1)
-gpgpu_operand_collector_num_out_ports_sfu                    1 # number of collector unit in ports (default = 1)
-gpgpu_operand_collector_num_out_ports_mem                    1 # number of collector unit in ports (default = 1)
-gpgpu_operand_collector_num_out_ports_gen                    0 # number of collector unit in ports (default = 0)
-gpgpu_coalesce_arch                   13 # Coalescing arch (default = 13, anything else is off for now)
-gpgpu_num_sched_per_core                    1 # Number of warp schedulers per core
-gpgpu_max_insn_issue_per_warp                    1 # Max number of instructions that can be issued per warp in one cycle by scheduler
-gpgpu_simt_core_sim_order                    1 # Select the simulation order of cores in a cluster (0=Fix, 1=Round-Robin)
-gpgpu_pipeline_widths        2,1,1,2,1,1,2 # Pipeline widths ID_OC_SP,ID_OC_SFU,ID_OC_MEM,OC_EX_SP,OC_EX_SFU,OC_EX_MEM,EX_WB
-gpgpu_num_sp_units                     2 # Number of SP units (default=1)
-gpgpu_num_sfu_units                    1 # Number of SF units (default=1)
-gpgpu_num_mem_units                    1 # Number if ldst units (default=1) WARNING: not hooked up to anything
-gpgpu_scheduler                      gto # Scheduler configuration: < lrr | gto | two_level_active > If two_level_active:<num_active_warps>:<inner_prioritization>:<outer_prioritization>For complete list of prioritization values see shader.h enum scheduler_prioritization_typeDefault: gto
-gpgpu_dram_scheduler                    1 # 0 = fifo, 1 = FR-FCFS (defaul)
-gpgpu_dram_partition_queues              8:8:8:8 # i2$:$2d:d2$:$2i
-l2_ideal                               0 # Use a ideal L2 cache that always hit
-gpgpu_cache:dl2     64:128:8,L:B:m:W:L,A:32:4,4:0,32 # unified banked L2 data cache config  {<nsets>:<bsize>:<assoc>,<rep>:<wr>:<alloc>:<wr_alloc>,<mshr>:<N>:<merge>,<mq>}
-gpgpu_cache:dl2_texture_only                    0 # L2 cache used for texture only
-gpgpu_n_mem                            6 # number of memory modules (e.g. memory controllers) in gpu
-gpgpu_n_sub_partition_per_mchannel                    2 # number of memory subpartition in each memory module
-gpgpu_n_mem_per_ctrlr                    2 # number of memory chips per memory controller
-gpgpu_memlatency_stat                   14 # track and display latency statistics 0x2 enables MC, 0x4 enables queue logs
-gpgpu_frfcfs_dram_sched_queue_size                   16 # 0 = unlimited (default); # entries per chip
-gpgpu_dram_return_queue_size                  116 # 0 = unlimited (default); # entries per chip
-gpgpu_dram_buswidth                    4 # default = 4 bytes (8 bytes per cycle at DDR)
-gpgpu_dram_burst_length                    8 # Burst length of each DRAM request (default = 4 data bus cycle)
-dram_data_command_freq_ratio                    4 # Frequency ratio between DRAM data bus and command bus (default = 2 times, i.e. DDR)
-gpgpu_dram_timing_opt nbk=16:CCD=2:RRD=6:RCD=12:RAS=28:RP=12:RC=40: CL=12:WL=4:CDLR=5:WR=12:nbkgrp=4:CCDL=3:RTPL=2 # DRAM timing parameters = {nbk:tCCD:tRRD:tRCD:tRAS:tRP:tRC:CL:WL:tCDLR:tWR:nbkgrp:tCCDL:tRTPL}
-rop_latency                          120 # ROP queue latency (default 85)
-dram_latency                         100 # DRAM latency (default 30)
-gpgpu_mem_addr_mapping dramid@8;00000000.00000000.00000000.00000000.0000RRRR.RRRRRRRR.BBBCCCCB.CCSSSSSS # mapping memory address to dram model {dramid@<start bit>;<memory address map>}
-gpgpu_mem_addr_test                    0 # run sweep test to check address mapping for aliased address
-gpgpu_mem_address_mask                    1 # 0 = old addressing mask, 1 = new addressing mask, 2 = new add. mask + flipped bank sel and chip sel bits
-gpuwattch_xml_file  gpuwattch_gtx480.xml # GPUWattch XML file
-power_simulation_enabled                    1 # Turn on power simulator (1=On, 0=Off)
-power_per_cycle_dump                    0 # Dump detailed power output each cycle
-power_trace_enabled                    0 # produce a file for the power trace (1=On, 0=Off)
-power_trace_zlevel                     6 # Compression level of the power trace output log (0=no comp, 9=highest)
-steady_power_levels_enabled                    0 # produce a file for the steady power levels (1=On, 0=Off)
-steady_state_definition                  8:4 # allowed deviation:number of samples
-gpgpu_max_cycle                        0 # terminates gpu simulation early (0 = no limit)
-gpgpu_max_insn                         0 # terminates gpu simulation early (0 = no limit)
-gpgpu_max_cta                          0 # terminates gpu simulation early (0 = no limit)
-gpgpu_runtime_stat                   500 # display runtime statistics such as dram utilization {<freq>:<flag>}
-liveness_message_freq                    1 # Minimum number of seconds between simulation liveness messages (0 = always print)
-gpgpu_flush_l1_cache                    0 # Flush L1 cache at the end of each kernel call
-gpgpu_flush_l2_cache                    0 # Flush L2 cache at the end of each kernel call
-gpgpu_deadlock_detect                    1 # Stop the simulation at deadlock (1=on (default), 0=off)
-gpgpu_ptx_instruction_classification                    0 # if enabled will classify ptx instruction types per kernel (Max 255 kernels now)
-gpgpu_ptx_sim_mode                     0 # Select between Performance (default) or Functional simulation (1)
-gpgpu_clock_domains 700.0:700.0:700.0:924.0 # Clock Domain Frequencies in MhZ {<Core Clock>:<ICNT Clock>:<L2 Clock>:<DRAM Clock>}
-gpgpu_max_concurrent_kernel                    8 # maximum kernels that can run concurrently on GPU
-gpgpu_cflog_interval                    0 # Interval between each snapshot in control flow logger
-visualizer_enabled                     0 # Turn on visualizer output (1=On, 0=Off)
-visualizer_outputfile                 NULL # Specifies the output log file for visualizer
-visualizer_zlevel                      6 # Compression level of the visualizer output log (0=no comp, 9=highest)
-trace_enabled                          0 # Turn on traces
-trace_components                    none # comma seperated list of traces to enable. Complete list found in trace_streams.tup. Default none
-trace_sampling_core                    0 # The core which is printed using CORE_DPRINTF. Default 0
-trace_sampling_memory_partition                   -1 # The memory partition which is printed using MEMPART_DPRINTF. Default -1 (i.e. all)
-enable_ptx_file_line_stats                    1 # Turn on PTX source line statistic profiling. (1 = On)
-ptx_line_stats_filename gpgpu_inst_stats.txt # Output file for PTX source line statistics.
-save_embedded_ptx                      0 # saves ptx files embedded in binary as <n>.ptx
-keep                                   0 # keep intermediate files created by GPGPU-Sim when interfacing with external programs
-gpgpu_ptx_save_converted_ptxplus                    0 # Saved converted ptxplus to a file
-ptx_opcode_latency_int         4,13,4,5,145 # Opcode latencies for integers <ADD,MAX,MUL,MAD,DIV>Default 1,1,19,25,145
-ptx_opcode_latency_fp          4,13,4,5,39 # Opcode latencies for single precision floating points <ADD,MAX,MUL,MAD,DIV>Default 1,1,1,1,30
-ptx_opcode_latency_dp         8,19,8,8,330 # Opcode latencies for double precision floating points <ADD,MAX,MUL,MAD,DIV>Default 8,8,8,8,335
-ptx_opcode_initiation_int            1,2,2,1,8 # Opcode initiation intervals for integers <ADD,MAX,MUL,MAD,DIV>Default 1,1,4,4,32
-ptx_opcode_initiation_fp            1,2,1,1,4 # Opcode initiation intervals for single precision floating points <ADD,MAX,MUL,MAD,DIV>Default 1,1,1,1,5
-ptx_opcode_initiation_dp         8,16,8,8,130 # Opcode initiation intervals for double precision floating points <ADD,MAX,MUL,MAD,DIV>Default 8,8,8,8,130
ESHA: SIMD Width was found to be : 32
DRAM Timing Options:
nbk                                    16 # number of banks
CCD                                     2 # column to column delay
RRD                                     6 # minimal delay between activation of rows in different banks
RCD                                    12 # row to column delay
RAS                                    28 # time needed to activate row
RP                                     12 # time needed to precharge (deactivate) row
RC                                     40 # row cycle time
CDLR                                    5 # switching from write to read (changes tWTR)
WR                                     12 # last data-in to row precharge
CL                                     12 # CAS latency
WL                                      4 # Write latency
nbkgrp                                  4 # number of bank groups
CCDL                                    3 # column to column delay between accesses to different bank groups
RTPL                                    2 # read to precharge delay between accesses to different bank groups
Total number of memory sub partition = 12
addr_dec_mask[CHIP]  = 0000000000000000 	high:64 low:0
addr_dec_mask[BK]    = 000000000000e100 	high:16 low:8
addr_dec_mask[ROW]   = 000000000fff0000 	high:28 low:16
addr_dec_mask[COL]   = 0000000000001eff 	high:13 low:0
addr_dec_mask[BURST] = 000000000000003f 	high:6 low:0
sub_partition_id_mask = 0000000000000100
GPGPU-Sim uArch: clock freqs: 700000000.000000:700000000.000000:700000000.000000:924000000.000000
GPGPU-Sim uArch: clock periods: 0.00000000142857142857:0.00000000142857142857:0.00000000142857142857:0.00000000108225108225
ESHA_CHANGED: in shader config simd is  32 
*** Initializing Memory Statistics ***
GPGPU-Sim uArch: interconnect node map (shaderID+MemID to icntID)
GPGPU-Sim uArch: Memory nodes ID start from index: 15
GPGPU-Sim uArch:    0   1   2   3   4
GPGPU-Sim uArch:    5   6   7   8   9
GPGPU-Sim uArch:   10  11  12  13  14
GPGPU-Sim uArch:   15  16  17  18  19
GPGPU-Sim uArch:   20  21  22  23  24
GPGPU-Sim uArch:   25  26
GPGPU-Sim uArch: interconnect node reverse map (icntID to shaderID+MemID)
GPGPU-Sim uArch: Memory nodes start from ID: 15
GPGPU-Sim uArch:    0   1   2   3   4
GPGPU-Sim uArch:    5   6   7   8   9
GPGPU-Sim uArch:   10  11  12  13  14
GPGPU-Sim uArch:   15  16  17  18  19
GPGPU-Sim uArch:   20  21  22  23  24
GPGPU-Sim uArch:   25  26
59223c5836e436fa179bac05233b3051  /home/kishore/project_source/gpu_class_proj/gpgpusim-benchmarks-master/bin/release/NQU
GPGPU-Sim uArch: performance model initialization complete.
GPGPU-Sim PTX: __cudaRegisterFatBinary, fat_cubin_handle = 1, filename=nqueen.cu
self exe links to: /home/kishore/project_source/gpu_class_proj/gpgpusim-benchmarks-master/bin/release/NQU
Running md5sum using "md5sum /home/kishore/project_source/gpu_class_proj/gpgpusim-benchmarks-master/bin/release/NQU "
Running cuobjdump using "$CUDA_INSTALL_PATH/bin/cuobjdump -ptx -elf -sass /home/kishore/project_source/gpu_class_proj/gpgpusim-benchmarks-master/bin/release/NQU > _cuobjdump_complete_output_d3tC4F"
Parsing file _cuobjdump_complete_output_d3tC4F
######### cuobjdump parser ########
## Adding new section PTX
Adding ptx filename: _cuobjdump_1.ptx
Adding arch: sm_10
Adding identifier: nqueen.cu
## Adding new section ELF
Adding arch: sm_10
Adding identifier: nqueen.cu
## Adding new section PTX
Adding ptx filename: _cuobjdump_2.ptx
Adding arch: sm_20
Adding identifier: nqueen.cu
## Adding new section ELF
Adding arch: sm_20
Adding identifier: nqueen.cu
Done parsing!!!
GPGPU-Sim PTX: __cudaRegisterFunction _Z24solve_nqueen_cuda_kerneliiPjS_S_S_i : hostFun 0x0x403b20, fat_cubin_handle = 1
GPGPU-Sim PTX: allocating shared region for "__cuda___cuda_local_var_65604_39_non_const_sum44" from 0x0 to 0x180 (shared memory space)
GPGPU-Sim PTX: allocating shared region for "__cuda___cuda_local_var_65599_39_non_const_mask428" from 0x180 to 0x1080 (shared memory space)
GPGPU-Sim PTX: allocating shared region for "__cuda___cuda_local_var_65601_39_non_const_r_mask4268" from 0x1080 to 0x1f80 (shared memory space)
GPGPU-Sim PTX: allocating shared region for "__cuda___cuda_local_var_65600_39_non_const_l_mask8108" from 0x1f80 to 0x2e80 (shared memory space)
GPGPU-Sim PTX: allocating shared region for "__cuda___cuda_local_var_65602_39_non_const_m11948" from 0x2e80 to 0x3d80 (shared memory space)
GPGPU-Sim PTX: instruction assembly for function '_Z24solve_nqueen_cuda_kerneliiPjS_S_S_i'...   done.
GPGPU-Sim PTX: finding reconvergence points for '_Z24solve_nqueen_cuda_kerneliiPjS_S_S_i'...
GPGPU-Sim PTX: Finding dominators for '_Z24solve_nqueen_cuda_kerneliiPjS_S_S_i'...
GPGPU-Sim PTX: Finding immediate dominators for '_Z24solve_nqueen_cuda_kerneliiPjS_S_S_i'...
GPGPU-Sim PTX: Finding postdominators for '_Z24solve_nqueen_cuda_kerneliiPjS_S_S_i'...
GPGPU-Sim PTX: Finding immediate postdominators for '_Z24solve_nqueen_cuda_kerneliiPjS_S_S_i'...
GPGPU-Sim PTX: pre-decoding instructions for '_Z24solve_nqueen_cuda_kerneliiPjS_S_S_i'...
GPGPU-Sim PTX: reconvergence points for _Z24solve_nqueen_cuda_kerneliiPjS_S_S_i...
GPGPU-Sim PTX:  1 (potential) branch divergence @  PC=0x058 (_1.ptx:81) @%p1 bra $Lt_0_10754;
GPGPU-Sim PTX:    immediate post dominator      @  PC=0x328 (_1.ptx:198) bar.sync 0;
GPGPU-Sim PTX:  2 (potential) branch divergence @  PC=0x198 (_1.ptx:127) @%p2 bra $Lt_0_12034;
GPGPU-Sim PTX:    immediate post dominator      @  PC=0x2f0 (_1.ptx:186) mov.u32 %r37, 0;
GPGPU-Sim PTX:  3 (potential) branch divergence @  PC=0x1b0 (_1.ptx:131) bra.uni $Lt_0_12290;
GPGPU-Sim PTX:    immediate post dominator      @  PC=0x2f0 (_1.ptx:186) mov.u32 %r37, 0;
GPGPU-Sim PTX:  4 (potential) branch divergence @  PC=0x1f8 (_1.ptx:143) @%p3 bra $Lt_0_12546;
GPGPU-Sim PTX:    immediate post dominator      @  PC=0x2f0 (_1.ptx:186) mov.u32 %r37, 0;
GPGPU-Sim PTX:  5 (potential) branch divergence @  PC=0x218 (_1.ptx:147) @%p4 bra $Lt_0_13058;
GPGPU-Sim PTX:    immediate post dominator      @  PC=0x2f0 (_1.ptx:186) mov.u32 %r37, 0;
GPGPU-Sim PTX:  6 (potential) branch divergence @  PC=0x238 (_1.ptx:153) bra.uni $Lt_0_12290;
GPGPU-Sim PTX:    immediate post dominator      @  PC=0x2f0 (_1.ptx:186) mov.u32 %r37, 0;
GPGPU-Sim PTX:  7 (potential) branch divergence @  PC=0x2d8 (_1.ptx:179) bra.uni $Lt_0_12290;
GPGPU-Sim PTX:    immediate post dominator      @  PC=0x2f0 (_1.ptx:186) mov.u32 %r37, 0;
GPGPU-Sim PTX:  8 (potential) branch divergence @  PC=0x300 (_1.ptx:188) @%p5 bra $Lt_0_11522;
GPGPU-Sim PTX:    immediate post dominator      @  PC=0x308 (_1.ptx:190) st.shared.u32 [%rd4+0], %r16;
GPGPU-Sim PTX:  9 (potential) branch divergence @  PC=0x310 (_1.ptx:191) bra.uni $Lt_0_10498;
GPGPU-Sim PTX:    immediate post dominator      @  PC=0x328 (_1.ptx:198) bar.sync 0;
GPGPU-Sim PTX: 10 (potential) branch divergence @  PC=0x340 (_1.ptx:201) @!%p6 bra $Lt_0_13570;
GPGPU-Sim PTX:    immediate post dominator      @  PC=0x368 (_1.ptx:208) bar.sync 0;
GPGPU-Sim PTX: 11 (potential) branch divergence @  PC=0x370 (_1.ptx:209) @!%p6 bra $Lt_0_14082;
GPGPU-Sim PTX:    immediate post dominator      @  PC=0x398 (_1.ptx:216) bar.sync 0;
GPGPU-Sim PTX: 12 (potential) branch divergence @  PC=0x3b0 (_1.ptx:219) @%p7 bra $Lt_0_14594;
GPGPU-Sim PTX:    immediate post dominator      @  PC=0x3d8 (_1.ptx:226) bar.sync 0;
GPGPU-Sim PTX: 13 (potential) branch divergence @  PC=0x3f0 (_1.ptx:229) @%p8 bra $Lt_0_15106;
GPGPU-Sim PTX:    immediate post dominator      @  PC=0x418 (_1.ptx:236) bar.sync 0;
GPGPU-Sim PTX: 14 (potential) branch divergence @  PC=0x430 (_1.ptx:239) @%p9 bra $Lt_0_15618;
GPGPU-Sim PTX:    immediate post dominator      @  PC=0x458 (_1.ptx:246) bar.sync 0;
GPGPU-Sim PTX: 15 (potential) branch divergence @  PC=0x470 (_1.ptx:249) @%p10 bra $Lt_0_16130;
GPGPU-Sim PTX:    immediate post dominator      @  PC=0x498 (_1.ptx:256) bar.sync 0;
GPGPU-Sim PTX: 16 (potential) branch divergence @  PC=0x4b0 (_1.ptx:259) @%p11 bra $Lt_0_16642;
GPGPU-Sim PTX:    immediate post dominator      @  PC=0x4d8 (_1.ptx:266) bar.sync 0;
GPGPU-Sim PTX: 17 (potential) branch divergence @  PC=0x4f0 (_1.ptx:269) @%p12 bra $Lt_0_17154;
GPGPU-Sim PTX:    immediate post dominator      @  PC=0x528 (_1.ptx:279) exit;
GPGPU-Sim PTX: ... end of reconvergence points for _Z24solve_nqueen_cuda_kerneliiPjS_S_S_i
GPGPU-Sim PTX: ... done pre-decoding instructions for '_Z24solve_nqueen_cuda_kerneliiPjS_S_S_i'.
GPGPU-Sim PTX: finished parsing EMBEDDED .ptx file _1.ptx
Adding _cuobjdump_2.ptx with cubin handle 1
GPGPU-Sim PTX: extracting embedded .ptx to temporary file "_ptx_fxfR9o"
Running: cat _ptx_fxfR9o | sed 's/.version 1.5/.version 1.4/' | sed 's/, texmode_independent//' | sed 's/\(\.extern \.const\[1\] .b8 \w\+\)\[\]/\1\[1\]/' | sed 's/const\[.\]/const\[0\]/g' > _ptx2_TQm7e8
GPGPU-Sim PTX: generating ptxinfo using "$CUDA_INSTALL_PATH/bin/ptxas --gpu-name=sm_20 -v _ptx2_TQm7e8 --output-file  /dev/null 2> _ptx_fxfR9oinfo"
GPGPU-Sim PTX: Kernel '_Z24solve_nqueen_cuda_kerneliiPjS_S_S_i' : regs=15, lmem=0, smem=15744, cmem=76
GPGPU-Sim PTX: removing ptxinfo using "rm -f _ptx_fxfR9o _ptx2_TQm7e8 _ptx_fxfR9oinfo"
GPGPU-Sim PTX: loading globals with explicit initializers... 
GPGPU-Sim PTX: finished loading globals (0 bytes total).
GPGPU-Sim PTX: loading constants with explicit initializers...  done.
Usage: ../bin/release/NQU [-c|-g] n steps
  -c: CPU only
  -g: GPU only
  n: n-queen
  steps: step for GPU
Default to 8 queen
CUDA initialized.
GPGPU-Sim: synchronize waiting for inactive GPU simulation
GPGPU-Sim API: Stream Manager State
GPGPU-Sim: detected inactive GPU simulation thread
CPU: 11 queen = 2680  time = 1.530000 msec
GPGPU-Sim: synchronize waiting for inactive GPU simulation
GPGPU-Sim API: Stream Manager State
GPGPU-Sim: detected inactive GPU simulation thread
256 96

GPGPU-Sim PTX: cudaLaunch for 0x0x403b20 (mode=performance simulation) on stream 0
GPGPU-Sim PTX: pushing kernel '_Z24solve_nqueen_cuda_kerneliiPjS_S_S_i' to stream 0, gridDim= (256,1,1) blockDim = (96,1,1) 
kernel '_Z24solve_nqueen_cuda_kerneliiPjS_S_S_i' transfer to GPU hardware scheduler
GPGPU-Sim uArch: Shader 1 bind to kernel 1 '_Z24solve_nqueen_cuda_kerneliiPjS_S_S_i'
GPGPU-Sim uArch: CTA/core = 3, limited by: shmem
GPGPU-Sim uArch: core:  1, cta: 0 initialized @(1,0)
GPGPU-Sim uArch: Shader 2 bind to kernel 1 '_Z24solve_nqueen_cuda_kerneliiPjS_S_S_i'
GPGPU-Sim uArch: core:  2, cta: 0 initialized @(1,0)
GPGPU-Sim uArch: Shader 3 bind to kernel 1 '_Z24solve_nqueen_cuda_kerneliiPjS_S_S_i'
GPGPU-Sim uArch: core:  3, cta: 0 initialized @(1,0)
GPGPU-Sim uArch: Shader 4 bind to kernel 1 '_Z24solve_nqueen_cuda_kerneliiPjS_S_S_i'
GPGPU-Sim uArch: core:  4, cta: 0 initialized @(1,0)
GPGPU-Sim uArch: Shader 5 bind to kernel 1 '_Z24solve_nqueen_cuda_kerneliiPjS_S_S_i'
GPGPU-Sim uArch: core:  5, cta: 0 initialized @(1,0)
GPGPU-Sim uArch: Shader 6 bind to kernel 1 '_Z24solve_nqueen_cuda_kerneliiPjS_S_S_i'
GPGPU-Sim uArch: core:  6, cta: 0 initialized @(1,0)
GPGPU-Sim uArch: Shader 7 bind to kernel 1 '_Z24solve_nqueen_cuda_kerneliiPjS_S_S_i'
GPGPU-Sim uArch: core:  7, cta: 0 initialized @(1,0)
GPGPU-Sim uArch: Shader 8 bind to kernel 1 '_Z24solve_nqueen_cuda_kerneliiPjS_S_S_i'
GPGPU-Sim uArch: core:  8, cta: 0 initialized @(1,0)
GPGPU-Sim uArch: Shader 9 bind to kernel 1 '_Z24solve_nqueen_cuda_kerneliiPjS_S_S_i'
GPGPU-Sim uArch: core:  9, cta: 0 initialized @(1,0)
GPGPU-Sim uArch: Shader 10 bind to kernel 1 '_Z24solve_nqueen_cuda_kerneliiPjS_S_S_i'
GPGPU-Sim uArch: core: 10, cta: 0 initialized @(1,0)
GPGPU-Sim uArch: Shader 11 bind to kernel 1 '_Z24solve_nqueen_cuda_kerneliiPjS_S_S_i'
GPGPU-Sim uArch: core: 11, cta: 0 initialized @(1,0)
GPGPU-Sim uArch: Shader 12 bind to kernel 1 '_Z24solve_nqueen_cuda_kerneliiPjS_S_S_i'
GPGPU-Sim uArch: core: 12, cta: 0 initialized @(1,0)
GPGPU-Sim uArch: Shader 13 bind to kernel 1 '_Z24solve_nqueen_cuda_kerneliiPjS_S_S_i'
GPGPU-Sim uArch: core: 13, cta: 0 initialized @(1,0)
GPGPU-Sim uArch: Shader 14 bind to kernel 1 '_Z24solve_nqueen_cuda_kerneliiPjS_S_S_i'
GPGPU-Sim uArch: core: 14, cta: 0 initialized @(1,0)
GPGPU-Sim uArch: Shader 0 bind to kernel 1 '_Z24solve_nqueen_cuda_kerneliiPjS_S_S_i'
GPGPU-Sim uArch: core:  0, cta: 0 initialized @(1,0)
GPGPU-Sim uArch: core:  1, cta: 1 initialized @(2,0)
GPGPU-Sim uArch: core:  2, cta: 1 initialized @(2,0)
GPGPU-Sim uArch: core:  3, cta: 1 initialized @(2,0)
GPGPU-Sim uArch: core:  4, cta: 1 initialized @(2,0)
GPGPU-Sim uArch: core:  5, cta: 1 initialized @(2,0)
GPGPU-Sim uArch: core:  6, cta: 1 initialized @(2,0)
GPGPU-Sim uArch: core:  7, cta: 1 initialized @(2,0)
GPGPU-Sim uArch: core:  8, cta: 1 initialized @(2,0)
GPGPU-Sim uArch: core:  9, cta: 1 initialized @(2,0)
GPGPU-Sim uArch: core: 10, cta: 1 initialized @(2,0)
GPGPU-Sim uArch: core: 11, cta: 1 initialized @(2,0)
GPGPU-Sim uArch: core: 12, cta: 1 initialized @(2,0)
GPGPU-Sim uArch: core: 13, cta: 1 initialized @(2,0)
GPGPU-Sim uArch: core: 14, cta: 1 initialized @(2,0)
GPGPU-Sim uArch: core:  0, cta: 1 initialized @(2,0)
GPGPU-Sim uArch: core:  1, cta: 2 initialized @(3,0)
GPGPU-Sim uArch: core:  2, cta: 2 initialized @(3,0)
GPGPU-Sim uArch: core:  3, cta: 2 initialized @(3,0)
GPGPU-Sim uArch: core:  4, cta: 2 initialized @(3,0)
GPGPU-Sim uArch: core:  5, cta: 2 initialized @(3,0)
GPGPU-Sim uArch: core:  6, cta: 2 initialized @(3,0)
GPGPU-Sim uArch: core:  7, cta: 2 initialized @(3,0)
GPGPU-Sim uArch: core:  8, cta: 2 initialized @(3,0)
GPGPU-Sim uArch: core:  9, cta: 2 initialized @(3,0)
GPGPU-Sim uArch: core: 10, cta: 2 initialized @(3,0)
GPGPU-Sim uArch: core: 11, cta: 2 initialized @(3,0)
GPGPU-Sim uArch: core: 12, cta: 2 initialized @(3,0)
GPGPU-Sim uArch: core: 13, cta: 2 initialized @(3,0)
GPGPU-Sim uArch: core: 14, cta: 2 initialized @(3,0)
GPGPU-Sim uArch: core:  0, cta: 2 initialized @(3,0)
GPGPU-Sim uArch: cycles simulated: 500  inst.: 38880 (ipc=77.8) sim_rate=38880 (inst/sec) elapsed = 0:0:00:01 / Wed May 13 09:55:36 2015
GPGPU-Sim uArch: cycles simulated: 1000  inst.: 90473 (ipc=90.5) sim_rate=45236 (inst/sec) elapsed = 0:0:00:02 / Wed May 13 09:55:37 2015
GPGPU-Sim PTX: 100000 instructions simulated : ctaid=(16,0,0) tid=(30,0,0)
GPGPU-Sim uArch: cycles simulated: 1500  inst.: 131020 (ipc=87.3) sim_rate=43673 (inst/sec) elapsed = 0:0:00:03 / Wed May 13 09:55:38 2015
GPGPU-Sim PTX: 200000 instructions simulated : ctaid=(23,0,0) tid=(3,0,0)
GPGPU-Sim uArch: cycles simulated: 2000  inst.: 199762 (ipc=99.9) sim_rate=49940 (inst/sec) elapsed = 0:0:00:04 / Wed May 13 09:55:39 2015
GPGPU-Sim uArch: Shader 3 finished CTA #0 (2463,0), 2 CTAs running
GPGPU-Sim uArch: core:  3, cta: 0 initialized @(2464,0)
GPGPU-Sim uArch: Shader 0 finished CTA #0 (2479,0), 2 CTAs running
GPGPU-Sim uArch: core:  0, cta: 0 initialized @(2480,0)
GPGPU-Sim uArch: Shader 5 finished CTA #0 (2481,0), 2 CTAs running
GPGPU-Sim uArch: core:  5, cta: 0 initialized @(2482,0)
GPGPU-Sim uArch: Shader 3 finished CTA #1 (2483,0), 2 CTAs running
GPGPU-Sim uArch: core:  3, cta: 1 initialized @(2484,0)
GPGPU-Sim uArch: Shader 0 finished CTA #1 (2485,0), 2 CTAs running
GPGPU-Sim uArch: core:  0, cta: 1 initialized @(2486,0)
GPGPU-Sim uArch: Shader 1 finished CTA #1 (2487,0), 2 CTAs running
GPGPU-Sim uArch: core:  1, cta: 1 initialized @(2488,0)
GPGPU-Sim uArch: Shader 2 finished CTA #0 (2489,0), 2 CTAs running
GPGPU-Sim uArch: core:  2, cta: 0 initialized @(2490,0)
GPGPU-Sim uArch: Shader 4 finished CTA #0 (2491,0), 2 CTAs running
GPGPU-Sim uArch: core:  4, cta: 0 initialized @(2492,0)
GPGPU-Sim uArch: Shader 5 finished CTA #1 (2493,0), 2 CTAs running
GPGPU-Sim uArch: core:  5, cta: 1 initialized @(2494,0)
GPGPU-Sim uArch: Shader 6 finished CTA #0 (2495,0), 2 CTAs running
GPGPU-Sim uArch: core:  6, cta: 0 initialized @(2496,0)
GPGPU-Sim uArch: Shader 3 finished CTA #2 (2497,0), 2 CTAs running
GPGPU-Sim uArch: core:  3, cta: 2 initialized @(2498,0)
GPGPU-Sim uArch: Shader 1 finished CTA #2 (2499,0), 2 CTAs running
GPGPU-Sim uArch: core:  1, cta: 2 initialized @(2500,0)
GPGPU-Sim uArch: cycles simulated: 2500  inst.: 208182 (ipc=83.3) sim_rate=41636 (inst/sec) elapsed = 0:0:00:05 / Wed May 13 09:55:40 2015
GPGPU-Sim uArch: Shader 2 finished CTA #1 (2501,0), 2 CTAs running
GPGPU-Sim uArch: core:  2, cta: 1 initialized @(2502,0)
GPGPU-Sim uArch: Shader 6 finished CTA #1 (2503,0), 2 CTAs running
GPGPU-Sim uArch: core:  6, cta: 1 initialized @(2504,0)
GPGPU-Sim uArch: Shader 7 finished CTA #0 (2505,0), 2 CTAs running
GPGPU-Sim uArch: core:  7, cta: 0 initialized @(2506,0)
GPGPU-Sim uArch: Shader 8 finished CTA #0 (2507,0), 2 CTAs running
GPGPU-Sim uArch: core:  8, cta: 0 initialized @(2508,0)
GPGPU-Sim uArch: Shader 9 finished CTA #0 (2509,0), 2 CTAs running
GPGPU-Sim uArch: core:  9, cta: 0 initialized @(2510,0)
GPGPU-Sim uArch: Shader 10 finished CTA #0 (2511,0), 2 CTAs running
GPGPU-Sim uArch: core: 10, cta: 0 initialized @(2512,0)
GPGPU-Sim uArch: Shader 11 finished CTA #0 (2513,0), 2 CTAs running
GPGPU-Sim uArch: core: 11, cta: 0 initialized @(2514,0)
GPGPU-Sim uArch: Shader 2 finished CTA #2 (2515,0), 2 CTAs running
GPGPU-Sim uArch: core:  2, cta: 2 initialized @(2516,0)
GPGPU-Sim uArch: Shader 6 finished CTA #2 (2517,0), 2 CTAs running
GPGPU-Sim uArch: core:  6, cta: 2 initialized @(2518,0)
GPGPU-Sim uArch: Shader 7 finished CTA #1 (2519,0), 2 CTAs running
GPGPU-Sim uArch: core:  7, cta: 1 initialized @(2520,0)
GPGPU-Sim uArch: Shader 8 finished CTA #1 (2521,0), 2 CTAs running
GPGPU-Sim uArch: core:  8, cta: 1 initialized @(2522,0)
GPGPU-Sim uArch: Shader 4 finished CTA #1 (2523,0), 2 CTAs running
GPGPU-Sim uArch: core:  4, cta: 1 initialized @(2524,0)
GPGPU-Sim uArch: Shader 9 finished CTA #1 (2525,0), 2 CTAs running
GPGPU-Sim uArch: core:  9, cta: 1 initialized @(2526,0)
GPGPU-Sim uArch: Shader 10 finished CTA #1 (2527,0), 2 CTAs running
GPGPU-Sim uArch: core: 10, cta: 1 initialized @(2528,0)
GPGPU-Sim uArch: Shader 11 finished CTA #1 (2529,0), 2 CTAs running
GPGPU-Sim uArch: core: 11, cta: 1 initialized @(2530,0)
GPGPU-Sim uArch: Shader 12 finished CTA #0 (2531,0), 2 CTAs running
GPGPU-Sim uArch: core: 12, cta: 0 initialized @(2532,0)
GPGPU-Sim uArch: Shader 13 finished CTA #0 (2533,0), 2 CTAs running
GPGPU-Sim uArch: core: 13, cta: 0 initialized @(2534,0)
GPGPU-Sim uArch: Shader 14 finished CTA #0 (2535,0), 2 CTAs running
GPGPU-Sim uArch: core: 14, cta: 0 initialized @(2536,0)
GPGPU-Sim uArch: Shader 7 finished CTA #2 (2537,0), 2 CTAs running
GPGPU-Sim uArch: core:  7, cta: 2 initialized @(2538,0)
GPGPU-Sim uArch: Shader 8 finished CTA #2 (2539,0), 2 CTAs running
GPGPU-Sim uArch: core:  8, cta: 2 initialized @(2540,0)
GPGPU-Sim uArch: Shader 9 finished CTA #2 (2541,0), 2 CTAs running
GPGPU-Sim uArch: core:  9, cta: 2 initialized @(2542,0)
GPGPU-Sim uArch: Shader 10 finished CTA #2 (2543,0), 2 CTAs running
GPGPU-Sim uArch: core: 10, cta: 2 initialized @(2544,0)
GPGPU-Sim uArch: Shader 11 finished CTA #2 (2545,0), 2 CTAs running
GPGPU-Sim uArch: core: 11, cta: 2 initialized @(2546,0)
GPGPU-Sim uArch: Shader 12 finished CTA #1 (2547,0), 2 CTAs running
GPGPU-Sim uArch: core: 12, cta: 1 initialized @(2548,0)
GPGPU-Sim uArch: Shader 13 finished CTA #1 (2549,0), 2 CTAs running
GPGPU-Sim uArch: core: 13, cta: 1 initialized @(2550,0)
GPGPU-Sim uArch: Shader 14 finished CTA #1 (2551,0), 2 CTAs running
GPGPU-Sim uArch: core: 14, cta: 1 initialized @(2552,0)
GPGPU-Sim uArch: Shader 12 finished CTA #2 (2553,0), 2 CTAs running
GPGPU-Sim uArch: core: 12, cta: 2 initialized @(2554,0)
GPGPU-Sim uArch: Shader 13 finished CTA #2 (2555,0), 2 CTAs running
GPGPU-Sim uArch: core: 13, cta: 2 initialized @(2556,0)
GPGPU-Sim uArch: Shader 14 finished CTA #2 (2557,0), 2 CTAs running
GPGPU-Sim uArch: core: 14, cta: 2 initialized @(2558,0)
GPGPU-Sim uArch: Shader 4 finished CTA #2 (2587,0), 2 CTAs running
GPGPU-Sim uArch: core:  4, cta: 2 initialized @(2588,0)
GPGPU-Sim uArch: Shader 0 finished CTA #2 (2594,0), 2 CTAs running
GPGPU-Sim uArch: core:  0, cta: 2 initialized @(2595,0)
GPGPU-Sim uArch: Shader 5 finished CTA #2 (2597,0), 2 CTAs running
GPGPU-Sim uArch: core:  5, cta: 2 initialized @(2598,0)
GPGPU-Sim PTX: 300000 instructions simulated : ctaid=(59,0,0) tid=(7,0,0)
GPGPU-Sim PTX: 400000 instructions simulated : ctaid=(86,0,0) tid=(75,0,0)
GPGPU-Sim uArch: Shader 0 finished CTA #0 (2992,0), 2 CTAs running
GPGPU-Sim uArch: core:  0, cta: 0 initialized @(2993,0)
GPGPU-Sim uArch: Shader 3 finished CTA #0 (2995,0), 2 CTAs running
GPGPU-Sim uArch: core:  3, cta: 0 initialized @(2996,0)
GPGPU-Sim uArch: Shader 5 finished CTA #0 (2998,0), 2 CTAs running
GPGPU-Sim uArch: core:  5, cta: 0 initialized @(2999,0)
GPGPU-Sim uArch: cycles simulated: 3000  inst.: 409361 (ipc=136.5) sim_rate=58480 (inst/sec) elapsed = 0:0:00:07 / Wed May 13 09:55:42 2015
GPGPU-Sim uArch: Shader 0 finished CTA #1 (3001,0), 2 CTAs running
GPGPU-Sim uArch: core:  0, cta: 1 initialized @(3002,0)
GPGPU-Sim uArch: Shader 1 finished CTA #1 (3004,0), 2 CTAs running
GPGPU-Sim uArch: core:  1, cta: 1 initialized @(3005,0)
GPGPU-Sim uArch: Shader 5 finished CTA #1 (3009,0), 2 CTAs running
GPGPU-Sim uArch: core:  5, cta: 1 initialized @(3010,0)
GPGPU-Sim uArch: Shader 1 finished CTA #2 (3012,0), 2 CTAs running
GPGPU-Sim uArch: core:  1, cta: 2 initialized @(3013,0)
GPGPU-Sim uArch: Shader 2 finished CTA #0 (3015,0), 2 CTAs running
GPGPU-Sim uArch: core:  2, cta: 0 initialized @(3016,0)
GPGPU-Sim uArch: Shader 3 finished CTA #1 (3018,0), 2 CTAs running
GPGPU-Sim uArch: core:  3, cta: 1 initialized @(3019,0)
GPGPU-Sim uArch: Shader 4 finished CTA #0 (3021,0), 2 CTAs running
GPGPU-Sim uArch: core:  4, cta: 0 initialized @(3022,0)
GPGPU-Sim uArch: Shader 6 finished CTA #0 (3024,0), 2 CTAs running
GPGPU-Sim uArch: core:  6, cta: 0 initialized @(3025,0)
GPGPU-Sim uArch: Shader 2 finished CTA #1 (3027,0), 2 CTAs running
GPGPU-Sim uArch: core:  2, cta: 1 initialized @(3028,0)
GPGPU-Sim uArch: Shader 3 finished CTA #2 (3030,0), 2 CTAs running
GPGPU-Sim uArch: core:  3, cta: 2 initialized @(3031,0)
GPGPU-Sim uArch: Shader 6 finished CTA #1 (3033,0), 2 CTAs running
GPGPU-Sim uArch: core:  6, cta: 1 initialized @(3034,0)
GPGPU-Sim uArch: Shader 7 finished CTA #0 (3036,0), 2 CTAs running
GPGPU-Sim uArch: core:  7, cta: 0 initialized @(3037,0)
GPGPU-Sim uArch: Shader 8 finished CTA #0 (3039,0), 2 CTAs running
GPGPU-Sim uArch: core:  8, cta: 0 initialized @(3040,0)
GPGPU-Sim uArch: Shader 9 finished CTA #0 (3042,0), 2 CTAs running
GPGPU-Sim uArch: core:  9, cta: 0 initialized @(3043,0)
GPGPU-Sim uArch: Shader 10 finished CTA #0 (3045,0), 2 CTAs running
GPGPU-Sim uArch: core: 10, cta: 0 initialized @(3046,0)
GPGPU-Sim uArch: Shader 11 finished CTA #0 (3048,0), 2 CTAs running
GPGPU-Sim uArch: core: 11, cta: 0 initialized @(3049,0)
GPGPU-Sim uArch: Shader 2 finished CTA #2 (3156,0), 2 CTAs running
GPGPU-Sim uArch: core:  2, cta: 2 initialized @(3157,0)
GPGPU-Sim uArch: Shader 8 finished CTA #1 (3172,0), 2 CTAs running
GPGPU-Sim uArch: core:  8, cta: 1 initialized @(3173,0)
GPGPU-Sim uArch: Shader 9 finished CTA #1 (3174,0), 2 CTAs running
GPGPU-Sim uArch: core:  9, cta: 1 initialized @(3175,0)
GPGPU-Sim uArch: Shader 10 finished CTA #1 (3176,0), 2 CTAs running
GPGPU-Sim uArch: core: 10, cta: 1 initialized @(3177,0)
GPGPU-Sim uArch: Shader 4 finished CTA #1 (3178,0), 2 CTAs running
GPGPU-Sim uArch: core:  4, cta: 1 initialized @(3179,0)
GPGPU-Sim uArch: Shader 11 finished CTA #1 (3180,0), 2 CTAs running
GPGPU-Sim uArch: core: 11, cta: 1 initialized @(3181,0)
GPGPU-Sim uArch: Shader 12 finished CTA #0 (3182,0), 2 CTAs running
GPGPU-Sim uArch: core: 12, cta: 0 initialized @(3183,0)
GPGPU-Sim uArch: Shader 13 finished CTA #0 (3184,0), 2 CTAs running
GPGPU-Sim uArch: core: 13, cta: 0 initialized @(3185,0)
GPGPU-Sim uArch: Shader 6 finished CTA #2 (3186,0), 2 CTAs running
GPGPU-Sim uArch: core:  6, cta: 2 initialized @(3187,0)
GPGPU-Sim uArch: Shader 14 finished CTA #0 (3188,0), 2 CTAs running
GPGPU-Sim uArch: core: 14, cta: 0 initialized @(3189,0)
GPGPU-Sim uArch: Shader 7 finished CTA #2 (3190,0), 2 CTAs running
GPGPU-Sim uArch: core:  7, cta: 2 initialized @(3191,0)
GPGPU-Sim uArch: Shader 7 finished CTA #1 (3192,0), 2 CTAs running
GPGPU-Sim uArch: core:  7, cta: 1 initialized @(3193,0)
GPGPU-Sim uArch: Shader 8 finished CTA #2 (3194,0), 2 CTAs running
GPGPU-Sim uArch: core:  8, cta: 2 initialized @(3195,0)
GPGPU-Sim uArch: Shader 9 finished CTA #2 (3196,0), 2 CTAs running
GPGPU-Sim uArch: core:  9, cta: 2 initialized @(3197,0)
GPGPU-Sim uArch: Shader 10 finished CTA #2 (3198,0), 2 CTAs running
GPGPU-Sim uArch: core: 10, cta: 2 initialized @(3199,0)
GPGPU-Sim uArch: Shader 11 finished CTA #2 (3200,0), 2 CTAs running
GPGPU-Sim uArch: core: 11, cta: 2 initialized @(3201,0)
GPGPU-Sim uArch: Shader 12 finished CTA #1 (3202,0), 2 CTAs running
GPGPU-Sim uArch: core: 12, cta: 1 initialized @(3203,0)
GPGPU-Sim uArch: Shader 13 finished CTA #1 (3204,0), 2 CTAs running
GPGPU-Sim uArch: core: 13, cta: 1 initialized @(3205,0)
GPGPU-Sim uArch: Shader 14 finished CTA #1 (3206,0), 2 CTAs running
GPGPU-Sim uArch: core: 14, cta: 1 initialized @(3207,0)
GPGPU-Sim uArch: Shader 12 finished CTA #2 (3208,0), 2 CTAs running
GPGPU-Sim uArch: core: 12, cta: 2 initialized @(3209,0)
GPGPU-Sim uArch: Shader 13 finished CTA #2 (3210,0), 2 CTAs running
GPGPU-Sim uArch: core: 13, cta: 2 initialized @(3211,0)
GPGPU-Sim uArch: Shader 14 finished CTA #2 (3212,0), 2 CTAs running
GPGPU-Sim uArch: core: 14, cta: 2 initialized @(3213,0)
GPGPU-Sim uArch: Shader 4 finished CTA #2 (3214,0), 2 CTAs running
GPGPU-Sim uArch: core:  4, cta: 2 initialized @(3215,0)
GPGPU-Sim uArch: Shader 0 finished CTA #2 (3216,0), 2 CTAs running
GPGPU-Sim uArch: core:  0, cta: 2 initialized @(3217,0)
GPGPU-Sim uArch: Shader 5 finished CTA #2 (3218,0), 2 CTAs running
GPGPU-Sim uArch: core:  5, cta: 2 initialized @(3219,0)
GPGPU-Sim PTX: 500000 instructions simulated : ctaid=(125,0,0) tid=(20,0,0)
GPGPU-Sim PTX: 600000 instructions simulated : ctaid=(119,0,0) tid=(58,0,0)
GPGPU-Sim uArch: cycles simulated: 3500  inst.: 597553 (ipc=170.7) sim_rate=59755 (inst/sec) elapsed = 0:0:00:10 / Wed May 13 09:55:45 2015
GPGPU-Sim uArch: Shader 0 finished CTA #0 (3503,0), 2 CTAs running
GPGPU-Sim uArch: core:  0, cta: 0 initialized @(3504,0)
GPGPU-Sim uArch: Shader 5 finished CTA #0 (3514,0), 2 CTAs running
GPGPU-Sim uArch: core:  5, cta: 0 initialized @(3515,0)
GPGPU-Sim uArch: Shader 0 finished CTA #1 (3517,0), 2 CTAs running
GPGPU-Sim uArch: core:  0, cta: 1 initialized @(3518,0)
GPGPU-Sim uArch: Shader 1 finished CTA #1 (3521,0), 2 CTAs running
GPGPU-Sim uArch: core:  1, cta: 1 initialized @(3522,0)
GPGPU-Sim uArch: Shader 3 finished CTA #0 (3525,0), 2 CTAs running
GPGPU-Sim uArch: core:  3, cta: 0 initialized @(3526,0)
GPGPU-Sim uArch: Shader 5 finished CTA #1 (3528,0), 2 CTAs running
GPGPU-Sim uArch: core:  5, cta: 1 initialized @(3529,0)
GPGPU-Sim uArch: Shader 1 finished CTA #2 (3531,0), 2 CTAs running
GPGPU-Sim uArch: core:  1, cta: 2 initialized @(3532,0)
GPGPU-Sim uArch: Shader 2 finished CTA #0 (3642,0), 2 CTAs running
GPGPU-Sim uArch: core:  2, cta: 0 initialized @(3643,0)
GPGPU-Sim uArch: Shader 3 finished CTA #1 (3659,0), 2 CTAs running
GPGPU-Sim uArch: core:  3, cta: 1 initialized @(3660,0)
GPGPU-Sim uArch: Shader 7 finished CTA #0 (3661,0), 2 CTAs running
GPGPU-Sim uArch: core:  7, cta: 0 initialized @(3662,0)
GPGPU-Sim uArch: Shader 8 finished CTA #0 (3663,0), 2 CTAs running
GPGPU-Sim uArch: core:  8, cta: 0 initialized @(3664,0)
GPGPU-Sim uArch: Shader 4 finished CTA #0 (3665,0), 2 CTAs running
GPGPU-Sim uArch: core:  4, cta: 0 initialized @(3666,0)
GPGPU-Sim uArch: Shader 9 finished CTA #0 (3667,0), 2 CTAs running
GPGPU-Sim uArch: core:  9, cta: 0 initialized @(3668,0)
GPGPU-Sim uArch: Shader 10 finished CTA #0 (3669,0), 2 CTAs running
GPGPU-Sim uArch: core: 10, cta: 0 initialized @(3670,0)
GPGPU-Sim uArch: Shader 6 finished CTA #0 (3671,0), 2 CTAs running
GPGPU-Sim uArch: core:  6, cta: 0 initialized @(3672,0)
GPGPU-Sim uArch: Shader 11 finished CTA #0 (3673,0), 2 CTAs running
GPGPU-Sim uArch: core: 11, cta: 0 initialized @(3674,0)
GPGPU-Sim uArch: Shader 3 finished CTA #2 (3675,0), 2 CTAs running
GPGPU-Sim uArch: core:  3, cta: 2 initialized @(3676,0)
GPGPU-Sim uArch: Shader 2 finished CTA #1 (3677,0), 2 CTAs running
GPGPU-Sim uArch: core:  2, cta: 1 initialized @(3678,0)
GPGPU-Sim uArch: Shader 6 finished CTA #1 (3679,0), 2 CTAs running
GPGPU-Sim uArch: core:  6, cta: 1 initialized @(3680,0)
GPGPU-Sim uArch: Shader 2 finished CTA #2 (3681,0), 2 CTAs running
GPGPU-Sim uArch: core:  2, cta: 2 initialized @(3682,0)
GPGPU-Sim uArch: Shader 8 finished CTA #1 (3781,0), 2 CTAs running
GPGPU-Sim uArch: core:  8, cta: 1 initialized @(3782,0)
GPGPU-Sim uArch: Shader 9 finished CTA #1 (3783,0), 2 CTAs running
GPGPU-Sim uArch: core:  9, cta: 1 initialized @(3784,0)
GPGPU-Sim uArch: Shader 10 finished CTA #1 (3785,0), 2 CTAs running
GPGPU-Sim uArch: core: 10, cta: 1 initialized @(3786,0)
GPGPU-Sim uArch: Shader 12 finished CTA #0 (3787,0), 2 CTAs running
GPGPU-Sim uArch: core: 12, cta: 0 initialized @(3788,0)
GPGPU-Sim uArch: Shader 13 finished CTA #0 (3789,0), 2 CTAs running
GPGPU-Sim uArch: core: 13, cta: 0 initialized @(3790,0)
GPGPU-Sim uArch: Shader 4 finished CTA #1 (3791,0), 2 CTAs running
GPGPU-Sim uArch: core:  4, cta: 1 initialized @(3792,0)
GPGPU-Sim uArch: Shader 6 finished CTA #2 (3793,0), 2 CTAs running
GPGPU-Sim uArch: core:  6, cta: 2 initialized @(3794,0)
GPGPU-Sim uArch: Shader 7 finished CTA #2 (3795,0), 2 CTAs running
GPGPU-Sim uArch: core:  7, cta: 2 initialized @(3796,0)
GPGPU-Sim uArch: Shader 8 finished CTA #2 (3797,0), 2 CTAs running
GPGPU-Sim uArch: core:  8, cta: 2 initialized @(3798,0)
GPGPU-Sim uArch: Shader 9 finished CTA #2 (3799,0), 2 CTAs running
GPGPU-Sim uArch: core:  9, cta: 2 initialized @(3800,0)
GPGPU-Sim uArch: Shader 11 finished CTA #1 (3801,0), 2 CTAs running
GPGPU-Sim uArch: core: 11, cta: 1 initialized @(3802,0)
GPGPU-Sim uArch: Shader 14 finished CTA #0 (3803,0), 2 CTAs running
GPGPU-Sim uArch: core: 14, cta: 0 initialized @(3804,0)
GPGPU-Sim uArch: Shader 7 finished CTA #1 (3805,0), 2 CTAs running
GPGPU-Sim uArch: core:  7, cta: 1 initialized @(3806,0)
GPGPU-Sim uArch: Shader 10 finished CTA #2 (3807,0), 2 CTAs running
GPGPU-Sim uArch: core: 10, cta: 2 initialized @(3808,0)
GPGPU-Sim uArch: Shader 11 finished CTA #2 (3809,0), 2 CTAs running
GPGPU-Sim uArch: core: 11, cta: 2 initialized @(3810,0)
GPGPU-Sim uArch: Shader 12 finished CTA #1 (3811,0), 2 CTAs running
GPGPU-Sim uArch: core: 12, cta: 1 initialized @(3812,0)
GPGPU-Sim uArch: Shader 13 finished CTA #1 (3813,0), 2 CTAs running
GPGPU-Sim uArch: core: 13, cta: 1 initialized @(3814,0)
GPGPU-Sim uArch: Shader 14 finished CTA #1 (3815,0), 2 CTAs running
GPGPU-Sim uArch: core: 14, cta: 1 initialized @(3816,0)
GPGPU-Sim uArch: Shader 12 finished CTA #2 (3817,0), 2 CTAs running
GPGPU-Sim uArch: core: 12, cta: 2 initialized @(3818,0)
GPGPU-Sim PTX: 700000 instructions simulated : ctaid=(140,0,0) tid=(67,0,0)
GPGPU-Sim uArch: Shader 0 finished CTA #2 (3847,0), 2 CTAs running
GPGPU-Sim uArch: core:  0, cta: 2 initialized @(3848,0)
GPGPU-Sim uArch: Shader 14 finished CTA #2 (3864,0), 2 CTAs running
GPGPU-Sim uArch: core: 14, cta: 2 initialized @(3865,0)
GPGPU-Sim uArch: Shader 5 finished CTA #2 (3867,0), 2 CTAs running
GPGPU-Sim uArch: core:  5, cta: 2 initialized @(3868,0)
GPGPU-Sim uArch: Shader 4 finished CTA #2 (3869,0), 2 CTAs running
GPGPU-Sim uArch: core:  4, cta: 2 initialized @(3870,0)
GPGPU-Sim uArch: Shader 13 finished CTA #2 (3910,0), 2 CTAs running
GPGPU-Sim uArch: core: 13, cta: 2 initialized @(3911,0)
GPGPU-Sim uArch: cycles simulated: 4000  inst.: 769384 (ipc=192.3) sim_rate=59183 (inst/sec) elapsed = 0:0:00:13 / Wed May 13 09:55:48 2015
GPGPU-Sim uArch: Shader 0 finished CTA #0 (4028,0), 2 CTAs running
GPGPU-Sim uArch: core:  0, cta: 0 initialized @(4029,0)
GPGPU-Sim PTX: 800000 instructions simulated : ctaid=(152,0,0) tid=(1,0,0)
GPGPU-Sim uArch: Shader 5 finished CTA #0 (4031,0), 2 CTAs running
GPGPU-Sim uArch: core:  5, cta: 0 initialized @(4032,0)
GPGPU-Sim uArch: Shader 3 finished CTA #0 (4043,0), 2 CTAs running
GPGPU-Sim uArch: core:  3, cta: 0 initialized @(4044,0)
GPGPU-Sim uArch: Shader 0 finished CTA #1 (4046,0), 2 CTAs running
GPGPU-Sim uArch: core:  0, cta: 1 initialized @(4047,0)
GPGPU-Sim uArch: Shader 1 finished CTA #1 (4049,0), 2 CTAs running
GPGPU-Sim uArch: core:  1, cta: 1 initialized @(4050,0)
GPGPU-Sim uArch: Shader 5 finished CTA #1 (4053,0), 2 CTAs running
GPGPU-Sim uArch: core:  5, cta: 1 initialized @(4054,0)
GPGPU-Sim uArch: Shader 1 finished CTA #2 (4060,0), 2 CTAs running
GPGPU-Sim uArch: core:  1, cta: 2 initialized @(4061,0)
GPGPU-Sim uArch: Shader 2 finished CTA #0 (4164,0), 2 CTAs running
GPGPU-Sim uArch: core:  2, cta: 0 initialized @(4165,0)
GPGPU-Sim uArch: Shader 7 finished CTA #0 (4170,0), 2 CTAs running
GPGPU-Sim uArch: core:  7, cta: 0 initialized @(4171,0)
GPGPU-Sim uArch: Shader 8 finished CTA #0 (4181,0), 2 CTAs running
GPGPU-Sim uArch: core:  8, cta: 0 initialized @(4182,0)
GPGPU-Sim uArch: Shader 9 finished CTA #0 (4184,0), 2 CTAs running
GPGPU-Sim uArch: core:  9, cta: 0 initialized @(4185,0)
GPGPU-Sim uArch: Shader 3 finished CTA #1 (4187,0), 2 CTAs running
GPGPU-Sim uArch: core:  3, cta: 1 initialized @(4188,0)
GPGPU-Sim uArch: Shader 4 finished CTA #0 (4190,0), 2 CTAs running
GPGPU-Sim uArch: core:  4, cta: 0 initialized @(4191,0)
GPGPU-Sim uArch: Shader 6 finished CTA #0 (4193,0), 2 CTAs running
GPGPU-Sim uArch: core:  6, cta: 0 initialized @(4194,0)
GPGPU-Sim uArch: Shader 10 finished CTA #0 (4196,0), 2 CTAs running
GPGPU-Sim uArch: core: 10, cta: 0 initialized @(4197,0)
GPGPU-Sim uArch: Shader 11 finished CTA #0 (4199,0), 2 CTAs running
GPGPU-Sim uArch: core: 11, cta: 0 initialized @(4200,0)
GPGPU-Sim uArch: Shader 2 finished CTA #1 (4202,0), 2 CTAs running
GPGPU-Sim uArch: core:  2, cta: 1 initialized @(4203,0)
GPGPU-Sim uArch: Shader 3 finished CTA #2 (4205,0), 2 CTAs running
GPGPU-Sim uArch: core:  3, cta: 2 initialized @(4206,0)
GPGPU-Sim uArch: Shader 6 finished CTA #1 (4208,0), 2 CTAs running
GPGPU-Sim uArch: core:  6, cta: 1 initialized @(4209,0)
GPGPU-Sim uArch: Shader 2 finished CTA #2 (4211,0), 2 CTAs running
GPGPU-Sim uArch: core:  2, cta: 2 initialized @(4212,0)
GPGPU-Sim uArch: Shader 13 finished CTA #0 (4307,0), 2 CTAs running
GPGPU-Sim uArch: core: 13, cta: 0 initialized @(4308,0)
GPGPU-Sim uArch: Shader 4 finished CTA #1 (4310,0), 2 CTAs running
GPGPU-Sim uArch: core:  4, cta: 1 initialized @(4311,0)
GPGPU-Sim uArch: Shader 6 finished CTA #2 (4313,0), 2 CTAs running
GPGPU-Sim uArch: core:  6, cta: 2 initialized @(4314,0)
GPGPU-Sim uArch: Shader 8 finished CTA #1 (4319,0), 2 CTAs running
GPGPU-Sim uArch: core:  8, cta: 1 initialized @(4320,0)
GPGPU-Sim uArch: Shader 9 finished CTA #1 (4322,0), 2 CTAs running
GPGPU-Sim uArch: core:  9, cta: 1 initialized @(4323,0)
GPGPU-Sim uArch: Shader 10 finished CTA #1 (4325,0), 2 CTAs running
GPGPU-Sim uArch: core: 10, cta: 1 initialized @(4326,0)
GPGPU-Sim PTX: 900000 instructions simulated : ctaid=(182,0,0) tid=(28,0,0)
GPGPU-Sim uArch: Shader 12 finished CTA #0 (4331,0), 2 CTAs running
GPGPU-Sim uArch: core: 12, cta: 0 initialized @(4332,0)
GPGPU-Sim uArch: Shader 7 finished CTA #2 (4422,0), 2 CTAs running
GPGPU-Sim uArch: core:  7, cta: 2 initialized @(4423,0)
GPGPU-Sim uArch: Shader 8 finished CTA #2 (4439,0), 2 CTAs running
GPGPU-Sim uArch: core:  8, cta: 2 initialized @(4440,0)
GPGPU-Sim uArch: Shader 9 finished CTA #2 (4441,0), 2 CTAs running
GPGPU-Sim uArch: core:  9, cta: 2 initialized @(4442,0)
GPGPU-Sim uArch: Shader 10 finished CTA #2 (4443,0), 2 CTAs running
GPGPU-Sim uArch: core: 10, cta: 2 initialized @(4444,0)
GPGPU-Sim uArch: Shader 11 finished CTA #1 (4445,0), 2 CTAs running
GPGPU-Sim uArch: core: 11, cta: 1 initialized @(4446,0)
GPGPU-Sim uArch: Shader 11 finished CTA #2 (4447,0), 2 CTAs running
GPGPU-Sim uArch: core: 11, cta: 2 initialized @(4448,0)
GPGPU-Sim uArch: Shader 12 finished CTA #1 (4449,0), 2 CTAs running
GPGPU-Sim uArch: core: 12, cta: 1 initialized @(4450,0)
GPGPU-Sim uArch: Shader 13 finished CTA #1 (4451,0), 2 CTAs running
GPGPU-Sim uArch: core: 13, cta: 1 initialized @(4452,0)
GPGPU-Sim uArch: Shader 14 finished CTA #1 (4453,0), 2 CTAs running
GPGPU-Sim uArch: core: 14, cta: 1 initialized @(4454,0)
GPGPU-Sim uArch: Shader 7 finished CTA #1 (4455,0), 2 CTAs running
GPGPU-Sim uArch: core:  7, cta: 1 initialized @(4456,0)
GPGPU-Sim uArch: Shader 12 finished CTA #2 (4457,0), 2 CTAs running
GPGPU-Sim uArch: core: 12, cta: 2 initialized @(4458,0)
GPGPU-Sim uArch: Shader 14 finished CTA #0 (4459,0), 2 CTAs running
GPGPU-Sim uArch: core: 14, cta: 0 initialized @(4460,0)
GPGPU-Sim uArch: Shader 0 finished CTA #2 (4461,0), 2 CTAs running
GPGPU-Sim uArch: core:  0, cta: 2 initialized @(4462,0)
GPGPU-Sim uArch: Shader 5 finished CTA #2 (4463,0), 2 CTAs running
GPGPU-Sim uArch: core:  5, cta: 2 initialized @(4464,0)
GPGPU-Sim uArch: Shader 14 finished CTA #2 (4466,0), 2 CTAs running
GPGPU-Sim uArch: core: 14, cta: 2 initialized @(4467,0)
GPGPU-Sim uArch: Shader 4 finished CTA #2 (4467,0), 2 CTAs running
GPGPU-Sim uArch: core:  4, cta: 2 initialized @(4468,0)
GPGPU-Sim uArch: Shader 13 finished CTA #2 (4469,0), 2 CTAs running
GPGPU-Sim uArch: core: 13, cta: 2 initialized @(4470,0)
GPGPU-Sim uArch: cycles simulated: 4500  inst.: 942433 (ipc=209.4) sim_rate=62828 (inst/sec) elapsed = 0:0:00:15 / Wed May 13 09:55:50 2015
GPGPU-Sim uArch: Shader 0 finished CTA #0 (4566,0), 2 CTAs running
GPGPU-Sim uArch: core:  0, cta: 0 initialized @(4567,0)
GPGPU-Sim uArch: Shader 5 finished CTA #0 (4568,0), 2 CTAs running
GPGPU-Sim uArch: core:  5, cta: 0 initialized @(4569,0)
GPGPU-Sim uArch: Shader 3 finished CTA #0 (4570,0), 2 CTAs running
GPGPU-Sim uArch: core:  3, cta: 0 initialized @(4571,0)
GPGPU-Sim uArch: Shader 0 finished CTA #1 (4572,0), 2 CTAs running
GPGPU-Sim uArch: core:  0, cta: 1 initialized @(4573,0)
GPGPU-Sim uArch: Shader 1 finished CTA #1 (4575,0), 2 CTAs running
GPGPU-Sim uArch: core:  1, cta: 1 initialized @(4576,0)
GPGPU-Sim uArch: Shader 5 finished CTA #1 (4580,0), 2 CTAs running
GPGPU-Sim PTX: 1000000 instructions simulated : ctaid=(208,0,0) tid=(37,0,0)
GPGPU-Sim uArch: core:  5, cta: 1 initialized @(4581,0)
GPGPU-Sim uArch: Shader 1 finished CTA #2 (4593,0), 2 CTAs running
GPGPU-Sim uArch: core:  1, cta: 2 initialized @(4594,0)
GPGPU-Sim uArch: Shader 7 finished CTA #0 (4677,0), 2 CTAs running
GPGPU-Sim uArch: core:  7, cta: 0 initialized @(4678,0)
GPGPU-Sim uArch: Shader 2 finished CTA #0 (4688,0), 2 CTAs running
GPGPU-Sim uArch: core:  2, cta: 0 initialized @(4689,0)
GPGPU-Sim uArch: Shader 8 finished CTA #0 (4694,0), 2 CTAs running
GPGPU-Sim uArch: core:  8, cta: 0 initialized @(4695,0)
GPGPU-Sim uArch: Shader 9 finished CTA #0 (4697,0), 2 CTAs running
GPGPU-Sim uArch: core:  9, cta: 0 initialized @(4698,0)
GPGPU-Sim uArch: Shader 4 finished CTA #0 (4707,0), 2 CTAs running
GPGPU-Sim uArch: core:  4, cta: 0 initialized @(4708,0)
GPGPU-Sim uArch: Shader 10 finished CTA #0 (4710,0), 2 CTAs running
GPGPU-Sim uArch: core: 10, cta: 0 initialized @(4711,0)
GPGPU-Sim uArch: Shader 3 finished CTA #1 (4713,0), 2 CTAs running
GPGPU-Sim uArch: core:  3, cta: 1 initialized @(4714,0)
GPGPU-Sim uArch: Shader 6 finished CTA #0 (4718,0), 2 CTAs running
GPGPU-Sim uArch: core:  6, cta: 0 initialized @(4719,0)
GPGPU-Sim uArch: Shader 11 finished CTA #0 (4818,0), 2 CTAs running
GPGPU-Sim uArch: core: 11, cta: 0 initialized @(4819,0)
GPGPU-Sim uArch: Shader 3 finished CTA #2 (4835,0), 2 CTAs running
GPGPU-Sim uArch: core:  3, cta: 2 initialized @(4836,0)
GPGPU-Sim uArch: Shader 13 finished CTA #0 (4836,0), 2 CTAs running
GPGPU-Sim uArch: core: 13, cta: 0 initialized @(4837,0)
GPGPU-Sim uArch: Shader 4 finished CTA #1 (4838,0), 2 CTAs running
GPGPU-Sim uArch: core:  4, cta: 1 initialized @(4839,0)
GPGPU-Sim uArch: Shader 6 finished CTA #2 (4840,0), 2 CTAs running
GPGPU-Sim uArch: core:  6, cta: 2 initialized @(4841,0)
GPGPU-Sim uArch: Shader 2 finished CTA #1 (4842,0), 2 CTAs running
GPGPU-Sim uArch: core:  2, cta: 1 initialized @(4843,0)
GPGPU-Sim uArch: Shader 8 finished CTA #1 (4844,0), 2 CTAs running
GPGPU-Sim uArch: core:  8, cta: 1 initialized @(4845,0)
GPGPU-Sim uArch: Shader 6 finished CTA #1 (4846,0), 2 CTAs running
GPGPU-Sim uArch: core:  6, cta: 1 initialized @(4847,0)
GPGPU-Sim uArch: Shader 9 finished CTA #1 (4848,0), 2 CTAs running
GPGPU-Sim uArch: core:  9, cta: 1 initialized @(4849,0)
GPGPU-Sim uArch: Shader 2 finished CTA #2 (4850,0), 2 CTAs running
GPGPU-Sim uArch: core:  2, cta: 2 initialized @(4851,0)
GPGPU-Sim uArch: Shader 12 finished CTA #0 (4852,0), 2 CTAs running
GPGPU-Sim uArch: core: 12, cta: 0 initialized @(4853,0)
GPGPU-Sim PTX: 1100000 instructions simulated : ctaid=(238,0,0) tid=(90,0,0)
GPGPU-Sim uArch: Shader 10 finished CTA #1 (4854,0), 2 CTAs running
GPGPU-Sim uArch: core: 10, cta: 1 initialized @(4855,0)
GPGPU-Sim uArch: Shader 7 finished CTA #2 (4935,0), 2 CTAs running
GPGPU-Sim uArch: core:  7, cta: 2 initialized @(4936,0)
GPGPU-Sim uArch: Shader 11 finished CTA #1 (4956,0), 2 CTAs running
GPGPU-Sim uArch: core: 11, cta: 1 initialized @(4957,0)
GPGPU-Sim uArch: Shader 11 finished CTA #2 (4962,0), 2 CTAs running
GPGPU-Sim uArch: core: 11, cta: 2 initialized @(4963,0)
GPGPU-Sim uArch: Shader 10 finished CTA #2 (4965,0), 2 CTAs running
GPGPU-Sim uArch: core: 10, cta: 2 initialized @(4966,0)
GPGPU-Sim uArch: Shader 8 finished CTA #2 (4970,0), 2 CTAs running
GPGPU-Sim uArch: core:  8, cta: 2 initialized @(4971,0)
GPGPU-Sim uArch: Shader 9 finished CTA #2 (4973,0), 2 CTAs running
GPGPU-Sim uArch: core:  9, cta: 2 initialized @(4974,0)
GPGPU-Sim uArch: Shader 12 finished CTA #1 (4976,0), 2 CTAs running
GPGPU-Sim uArch: core: 12, cta: 1 initialized @(4977,0)
GPGPU-Sim uArch: Shader 13 finished CTA #1 (4979,0), 2 CTAs running
GPGPU-Sim uArch: core: 13, cta: 1 initialized @(4980,0)
GPGPU-Sim uArch: Shader 14 finished CTA #1 (4982,0), 2 CTAs running
GPGPU-Sim uArch: Shader 0 finished CTA #2 (4985,0), 2 CTAs running
GPGPU-Sim uArch: Shader 4 finished CTA #2 (4988,0), 2 CTAs running
GPGPU-Sim uArch: Shader 5 finished CTA #2 (4991,0), 2 CTAs running
GPGPU-Sim uArch: Shader 7 finished CTA #1 (4994,0), 2 CTAs running
GPGPU-Sim uArch: Shader 12 finished CTA #2 (4998,0), 2 CTAs running
GPGPU-Sim uArch: cycles simulated: 5000  inst.: 1126792 (ipc=225.4) sim_rate=62599 (inst/sec) elapsed = 0:0:00:18 / Wed May 13 09:55:53 2015
GPGPU-Sim uArch: Shader 13 finished CTA #2 (5001,0), 2 CTAs running
GPGPU-Sim uArch: Shader 14 finished CTA #0 (5003,0), 1 CTAs running
GPGPU-Sim uArch: Shader 14 finished CTA #2 (5006,0), 0 CTAs running
GPGPU-Sim uArch: Shader 14 empty (release kernel 1 '_Z24solve_nqueen_cuda_kerneliiPjS_S_S_i').
GPGPU-Sim uArch: Shader 3 finished CTA #0 (5083,0), 2 CTAs running
GPGPU-Sim uArch: Shader 0 finished CTA #0 (5087,0), 1 CTAs running
GPGPU-Sim uArch: Shader 5 finished CTA #0 (5095,0), 1 CTAs running
GPGPU-Sim PTX: 1200000 instructions simulated : ctaid=(247,0,0) tid=(0,0,0)
GPGPU-Sim uArch: Shader 0 finished CTA #1 (5198,0), 0 CTAs running
GPGPU-Sim uArch: Shader 0 empty (release kernel 1 '_Z24solve_nqueen_cuda_kerneliiPjS_S_S_i').
GPGPU-Sim uArch: Shader 7 finished CTA #0 (5215,0), 1 CTAs running
GPGPU-Sim uArch: Shader 2 finished CTA #0 (5217,0), 2 CTAs running
GPGPU-Sim uArch: Shader 8 finished CTA #0 (5220,0), 2 CTAs running
GPGPU-Sim uArch: Shader 1 finished CTA #1 (5221,0), 2 CTAs running
GPGPU-Sim uArch: Shader 9 finished CTA #0 (5223,0), 2 CTAs running
GPGPU-Sim uArch: Shader 5 finished CTA #1 (5225,0), 0 CTAs running
GPGPU-Sim uArch: Shader 5 empty (release kernel 1 '_Z24solve_nqueen_cuda_kerneliiPjS_S_S_i').
GPGPU-Sim uArch: Shader 3 finished CTA #1 (5227,0), 1 CTAs running
GPGPU-Sim uArch: Shader 4 finished CTA #0 (5229,0), 1 CTAs running
GPGPU-Sim uArch: Shader 1 finished CTA #2 (5234,0), 1 CTAs running
GPGPU-Sim uArch: Shader 10 finished CTA #0 (5236,0), 2 CTAs running
GPGPU-Sim uArch: Shader 6 finished CTA #0 (5238,0), 2 CTAs running
GPGPU-Sim uArch: Shader 11 finished CTA #0 (5335,0), 2 CTAs running
GPGPU-Sim uArch: Shader 13 finished CTA #0 (5348,0), 1 CTAs running
GPGPU-Sim uArch: Shader 4 finished CTA #1 (5351,0), 0 CTAs running
GPGPU-Sim uArch: Shader 4 empty (release kernel 1 '_Z24solve_nqueen_cuda_kerneliiPjS_S_S_i').
GPGPU-Sim uArch: Shader 3 finished CTA #2 (5354,0), 0 CTAs running
GPGPU-Sim uArch: Shader 3 empty (release kernel 1 '_Z24solve_nqueen_cuda_kerneliiPjS_S_S_i').
GPGPU-Sim uArch: Shader 8 finished CTA #1 (5357,0), 1 CTAs running
GPGPU-Sim uArch: Shader 9 finished CTA #1 (5360,0), 1 CTAs running
GPGPU-Sim uArch: Shader 12 finished CTA #0 (5363,0), 1 CTAs running
GPGPU-Sim uArch: Shader 6 finished CTA #2 (5366,0), 1 CTAs running
GPGPU-Sim uArch: Shader 6 finished CTA #1 (5369,0), 0 CTAs running
GPGPU-Sim uArch: Shader 6 empty (release kernel 1 '_Z24solve_nqueen_cuda_kerneliiPjS_S_S_i').
GPGPU-Sim uArch: Shader 2 finished CTA #1 (5372,0), 1 CTAs running
GPGPU-Sim uArch: Shader 10 finished CTA #1 (5382,0), 1 CTAs running
GPGPU-Sim uArch: Shader 2 finished CTA #2 (5387,0), 0 CTAs running
GPGPU-Sim uArch: Shader 2 empty (release kernel 1 '_Z24solve_nqueen_cuda_kerneliiPjS_S_S_i').
GPGPU-Sim uArch: Shader 7 finished CTA #2 (5442,0), 0 CTAs running
GPGPU-Sim uArch: Shader 7 empty (release kernel 1 '_Z24solve_nqueen_cuda_kerneliiPjS_S_S_i').
GPGPU-Sim uArch: Shader 11 finished CTA #1 (5475,0), 1 CTAs running
GPGPU-Sim uArch: Shader 11 finished CTA #2 (5482,0), 0 CTAs running
GPGPU-Sim uArch: Shader 11 empty (release kernel 1 '_Z24solve_nqueen_cuda_kerneliiPjS_S_S_i').
GPGPU-Sim uArch: Shader 12 finished CTA #1 (5486,0), 0 CTAs running
GPGPU-Sim uArch: Shader 12 empty (release kernel 1 '_Z24solve_nqueen_cuda_kerneliiPjS_S_S_i').
GPGPU-Sim uArch: Shader 13 finished CTA #1 (5489,0), 0 CTAs running
GPGPU-Sim uArch: Shader 13 empty (release kernel 1 '_Z24solve_nqueen_cuda_kerneliiPjS_S_S_i').
GPGPU-Sim uArch: Shader 8 finished CTA #2 (5492,0), 0 CTAs running
GPGPU-Sim uArch: Shader 8 empty (release kernel 1 '_Z24solve_nqueen_cuda_kerneliiPjS_S_S_i').
GPGPU-Sim uArch: Shader 9 finished CTA #2 (5495,0), 0 CTAs running
GPGPU-Sim uArch: Shader 9 empty (release kernel 1 '_Z24solve_nqueen_cuda_kerneliiPjS_S_S_i').
GPGPU-Sim uArch: Shader 10 finished CTA #2 (5498,0), 0 CTAs running
GPGPU-Sim uArch: Shader 10 empty (release kernel 1 '_Z24solve_nqueen_cuda_kerneliiPjS_S_S_i').
GPGPU-Sim uArch: cycles simulated: 5500  inst.: 1191288 (ipc=216.6) sim_rate=62699 (inst/sec) elapsed = 0:0:00:19 / Wed May 13 09:55:54 2015
GPGPU-Sim uArch: cycles simulated: 7000  inst.: 1197174 (ipc=171.0) sim_rate=59858 (inst/sec) elapsed = 0:0:00:20 / Wed May 13 09:55:55 2015
GPGPU-Sim uArch: cycles simulated: 10500  inst.: 1210435 (ipc=115.3) sim_rate=57639 (inst/sec) elapsed = 0:0:00:21 / Wed May 13 09:55:56 2015
GPGPU-Sim uArch: cycles simulated: 14500  inst.: 1225899 (ipc=84.5) sim_rate=55722 (inst/sec) elapsed = 0:0:00:22 / Wed May 13 09:55:57 2015
GPGPU-Sim uArch: cycles simulated: 18000  inst.: 1239297 (ipc=68.8) sim_rate=53882 (inst/sec) elapsed = 0:0:00:23 / Wed May 13 09:55:58 2015
GPGPU-Sim uArch: cycles simulated: 21500  inst.: 1253137 (ipc=58.3) sim_rate=52214 (inst/sec) elapsed = 0:0:00:24 / Wed May 13 09:55:59 2015
GPGPU-Sim uArch: cycles simulated: 25000  inst.: 1266307 (ipc=50.7) sim_rate=50652 (inst/sec) elapsed = 0:0:00:25 / Wed May 13 09:56:00 2015
GPGPU-Sim PTX: 1300000 instructions simulated : ctaid=(0,0,0) tid=(21,0,0)
GPGPU-Sim uArch: cycles simulated: 28500  inst.: 1280182 (ipc=44.9) sim_rate=49237 (inst/sec) elapsed = 0:0:00:26 / Wed May 13 09:56:01 2015
GPGPU-Sim uArch: cycles simulated: 32000  inst.: 1293496 (ipc=40.4) sim_rate=47907 (inst/sec) elapsed = 0:0:00:27 / Wed May 13 09:56:02 2015
GPGPU-Sim uArch: cycles simulated: 35500  inst.: 1306965 (ipc=36.8) sim_rate=46677 (inst/sec) elapsed = 0:0:00:28 / Wed May 13 09:56:03 2015
GPGPU-Sim uArch: cycles simulated: 39000  inst.: 1320181 (ipc=33.9) sim_rate=45523 (inst/sec) elapsed = 0:0:00:29 / Wed May 13 09:56:04 2015
GPGPU-Sim uArch: cycles simulated: 43000  inst.: 1336133 (ipc=31.1) sim_rate=44537 (inst/sec) elapsed = 0:0:00:30 / Wed May 13 09:56:05 2015
GPGPU-Sim uArch: cycles simulated: 46500  inst.: 1349443 (ipc=29.0) sim_rate=43530 (inst/sec) elapsed = 0:0:00:31 / Wed May 13 09:56:06 2015
GPGPU-Sim uArch: cycles simulated: 50000  inst.: 1362997 (ipc=27.3) sim_rate=42593 (inst/sec) elapsed = 0:0:00:32 / Wed May 13 09:56:07 2015
GPGPU-Sim PTX: 1400000 instructions simulated : ctaid=(0,0,0) tid=(4,0,0)
GPGPU-Sim uArch: cycles simulated: 53500  inst.: 1376416 (ipc=25.7) sim_rate=41709 (inst/sec) elapsed = 0:0:00:33 / Wed May 13 09:56:08 2015
GPGPU-Sim uArch: cycles simulated: 57000  inst.: 1390218 (ipc=24.4) sim_rate=40888 (inst/sec) elapsed = 0:0:00:34 / Wed May 13 09:56:09 2015
GPGPU-Sim uArch: cycles simulated: 60500  inst.: 1403561 (ipc=23.2) sim_rate=40101 (inst/sec) elapsed = 0:0:00:35 / Wed May 13 09:56:10 2015
GPGPU-Sim uArch: cycles simulated: 64000  inst.: 1416745 (ipc=22.1) sim_rate=39354 (inst/sec) elapsed = 0:0:00:36 / Wed May 13 09:56:11 2015
GPGPU-Sim uArch: cycles simulated: 68000  inst.: 1432654 (ipc=21.1) sim_rate=38720 (inst/sec) elapsed = 0:0:00:37 / Wed May 13 09:56:12 2015
GPGPU-Sim uArch: cycles simulated: 71500  inst.: 1445756 (ipc=20.2) sim_rate=38046 (inst/sec) elapsed = 0:0:00:38 / Wed May 13 09:56:13 2015
GPGPU-Sim uArch: cycles simulated: 74500  inst.: 1457544 (ipc=19.6) sim_rate=37372 (inst/sec) elapsed = 0:0:00:39 / Wed May 13 09:56:14 2015
GPGPU-Sim PTX: 1500000 instructions simulated : ctaid=(0,0,0) tid=(24,0,0)
GPGPU-Sim uArch: cycles simulated: 77000  inst.: 1467327 (ipc=19.1) sim_rate=36683 (inst/sec) elapsed = 0:0:00:40 / Wed May 13 09:56:15 2015
GPGPU-Sim uArch: cycles simulated: 79500  inst.: 1476754 (ipc=18.6) sim_rate=36018 (inst/sec) elapsed = 0:0:00:41 / Wed May 13 09:56:16 2015
GPGPU-Sim uArch: cycles simulated: 82000  inst.: 1486530 (ipc=18.1) sim_rate=35393 (inst/sec) elapsed = 0:0:00:42 / Wed May 13 09:56:17 2015
GPGPU-Sim uArch: cycles simulated: 84000  inst.: 1493999 (ipc=17.8) sim_rate=34744 (inst/sec) elapsed = 0:0:00:43 / Wed May 13 09:56:18 2015
GPGPU-Sim uArch: cycles simulated: 86500  inst.: 1503731 (ipc=17.4) sim_rate=34175 (inst/sec) elapsed = 0:0:00:44 / Wed May 13 09:56:19 2015
GPGPU-Sim uArch: cycles simulated: 89000  inst.: 1513529 (ipc=17.0) sim_rate=33633 (inst/sec) elapsed = 0:0:00:45 / Wed May 13 09:56:20 2015
GPGPU-Sim uArch: cycles simulated: 91500  inst.: 1523155 (ipc=16.6) sim_rate=33112 (inst/sec) elapsed = 0:0:00:46 / Wed May 13 09:56:21 2015
GPGPU-Sim uArch: cycles simulated: 94000  inst.: 1533062 (ipc=16.3) sim_rate=32618 (inst/sec) elapsed = 0:0:00:47 / Wed May 13 09:56:22 2015
GPGPU-Sim uArch: cycles simulated: 96500  inst.: 1542397 (ipc=16.0) sim_rate=32133 (inst/sec) elapsed = 0:0:00:48 / Wed May 13 09:56:23 2015
GPGPU-Sim uArch: cycles simulated: 99000  inst.: 1552165 (ipc=15.7) sim_rate=31676 (inst/sec) elapsed = 0:0:00:49 / Wed May 13 09:56:24 2015
GPGPU-Sim PTX: 1600000 instructions simulated : ctaid=(0,0,0) tid=(22,0,0)
GPGPU-Sim uArch: cycles simulated: 101500  inst.: 1561742 (ipc=15.4) sim_rate=31234 (inst/sec) elapsed = 0:0:00:50 / Wed May 13 09:56:25 2015
GPGPU-Sim uArch: cycles simulated: 103500  inst.: 1569285 (ipc=15.2) sim_rate=30770 (inst/sec) elapsed = 0:0:00:51 / Wed May 13 09:56:26 2015
GPGPU-Sim uArch: cycles simulated: 106000  inst.: 1579087 (ipc=14.9) sim_rate=30367 (inst/sec) elapsed = 0:0:00:52 / Wed May 13 09:56:27 2015
GPGPU-Sim uArch: cycles simulated: 109500  inst.: 1592509 (ipc=14.5) sim_rate=30047 (inst/sec) elapsed = 0:0:00:53 / Wed May 13 09:56:28 2015
GPGPU-Sim uArch: cycles simulated: 113000  inst.: 1605778 (ipc=14.2) sim_rate=29736 (inst/sec) elapsed = 0:0:00:54 / Wed May 13 09:56:29 2015
GPGPU-Sim uArch: cycles simulated: 116500  inst.: 1619501 (ipc=13.9) sim_rate=29445 (inst/sec) elapsed = 0:0:00:55 / Wed May 13 09:56:30 2015
GPGPU-Sim uArch: cycles simulated: 120000  inst.: 1633175 (ipc=13.6) sim_rate=29163 (inst/sec) elapsed = 0:0:00:56 / Wed May 13 09:56:31 2015
GPGPU-Sim uArch: cycles simulated: 123500  inst.: 1646427 (ipc=13.3) sim_rate=28884 (inst/sec) elapsed = 0:0:00:57 / Wed May 13 09:56:32 2015
GPGPU-Sim PTX: 1700000 instructions simulated : ctaid=(0,0,0) tid=(5,0,0)
GPGPU-Sim uArch: cycles simulated: 127000  inst.: 1660092 (ipc=13.1) sim_rate=28622 (inst/sec) elapsed = 0:0:00:58 / Wed May 13 09:56:33 2015
GPGPU-Sim uArch: cycles simulated: 131000  inst.: 1675548 (ipc=12.8) sim_rate=28399 (inst/sec) elapsed = 0:0:00:59 / Wed May 13 09:56:34 2015
GPGPU-Sim uArch: cycles simulated: 134500  inst.: 1688874 (ipc=12.6) sim_rate=28147 (inst/sec) elapsed = 0:0:01:00 / Wed May 13 09:56:35 2015
GPGPU-Sim uArch: cycles simulated: 138000  inst.: 1702486 (ipc=12.3) sim_rate=27909 (inst/sec) elapsed = 0:0:01:01 / Wed May 13 09:56:36 2015
GPGPU-Sim uArch: cycles simulated: 141500  inst.: 1716005 (ipc=12.1) sim_rate=27677 (inst/sec) elapsed = 0:0:01:02 / Wed May 13 09:56:37 2015
GPGPU-Sim uArch: cycles simulated: 144500  inst.: 1727576 (ipc=12.0) sim_rate=27421 (inst/sec) elapsed = 0:0:01:03 / Wed May 13 09:56:38 2015
GPGPU-Sim uArch: cycles simulated: 148000  inst.: 1740973 (ipc=11.8) sim_rate=27202 (inst/sec) elapsed = 0:0:01:04 / Wed May 13 09:56:39 2015
GPGPU-Sim PTX: 1800000 instructions simulated : ctaid=(0,0,0) tid=(26,0,0)
GPGPU-Sim uArch: cycles simulated: 151500  inst.: 1754464 (ipc=11.6) sim_rate=26991 (inst/sec) elapsed = 0:0:01:05 / Wed May 13 09:56:40 2015
GPGPU-Sim uArch: cycles simulated: 155000  inst.: 1768201 (ipc=11.4) sim_rate=26790 (inst/sec) elapsed = 0:0:01:06 / Wed May 13 09:56:41 2015
GPGPU-Sim uArch: cycles simulated: 158500  inst.: 1781871 (ipc=11.2) sim_rate=26595 (inst/sec) elapsed = 0:0:01:07 / Wed May 13 09:56:42 2015
GPGPU-Sim uArch: cycles simulated: 162000  inst.: 1795184 (ipc=11.1) sim_rate=26399 (inst/sec) elapsed = 0:0:01:08 / Wed May 13 09:56:43 2015
GPGPU-Sim uArch: cycles simulated: 165500  inst.: 1808513 (ipc=10.9) sim_rate=26210 (inst/sec) elapsed = 0:0:01:09 / Wed May 13 09:56:44 2015
GPGPU-Sim uArch: cycles simulated: 169000  inst.: 1821843 (ipc=10.8) sim_rate=26026 (inst/sec) elapsed = 0:0:01:10 / Wed May 13 09:56:45 2015
GPGPU-Sim uArch: cycles simulated: 173000  inst.: 1837550 (ipc=10.6) sim_rate=25880 (inst/sec) elapsed = 0:0:01:11 / Wed May 13 09:56:46 2015
GPGPU-Sim PTX: 1900000 instructions simulated : ctaid=(0,0,0) tid=(20,0,0)
GPGPU-Sim uArch: cycles simulated: 176500  inst.: 1850658 (ipc=10.5) sim_rate=25703 (inst/sec) elapsed = 0:0:01:12 / Wed May 13 09:56:47 2015
GPGPU-Sim uArch: cycles simulated: 180000  inst.: 1864498 (ipc=10.4) sim_rate=25541 (inst/sec) elapsed = 0:0:01:13 / Wed May 13 09:56:48 2015
GPGPU-Sim uArch: cycles simulated: 183500  inst.: 1877955 (ipc=10.2) sim_rate=25377 (inst/sec) elapsed = 0:0:01:14 / Wed May 13 09:56:49 2015
GPGPU-Sim uArch: cycles simulated: 187000  inst.: 1891454 (ipc=10.1) sim_rate=25219 (inst/sec) elapsed = 0:0:01:15 / Wed May 13 09:56:50 2015
GPGPU-Sim uArch: cycles simulated: 190500  inst.: 1905274 (ipc=10.0) sim_rate=25069 (inst/sec) elapsed = 0:0:01:16 / Wed May 13 09:56:51 2015
GPGPU-Sim uArch: cycles simulated: 194000  inst.: 1918549 (ipc= 9.9) sim_rate=24916 (inst/sec) elapsed = 0:0:01:17 / Wed May 13 09:56:52 2015
GPGPU-Sim uArch: cycles simulated: 197500  inst.: 1932085 (ipc= 9.8) sim_rate=24770 (inst/sec) elapsed = 0:0:01:18 / Wed May 13 09:56:53 2015
GPGPU-Sim uArch: cycles simulated: 201000  inst.: 1945487 (ipc= 9.7) sim_rate=24626 (inst/sec) elapsed = 0:0:01:19 / Wed May 13 09:56:54 2015
GPGPU-Sim PTX: 2000000 instructions simulated : ctaid=(0,0,0) tid=(23,0,0)
GPGPU-Sim uArch: cycles simulated: 204500  inst.: 1958691 (ipc= 9.6) sim_rate=24483 (inst/sec) elapsed = 0:0:01:20 / Wed May 13 09:56:55 2015
GPGPU-Sim uArch: cycles simulated: 208500  inst.: 1974090 (ipc= 9.5) sim_rate=24371 (inst/sec) elapsed = 0:0:01:21 / Wed May 13 09:56:56 2015
GPGPU-Sim uArch: cycles simulated: 212000  inst.: 1987457 (ipc= 9.4) sim_rate=24237 (inst/sec) elapsed = 0:0:01:22 / Wed May 13 09:56:57 2015
GPGPU-Sim uArch: cycles simulated: 215500  inst.: 2001283 (ipc= 9.3) sim_rate=24111 (inst/sec) elapsed = 0:0:01:23 / Wed May 13 09:56:58 2015
GPGPU-Sim uArch: cycles simulated: 219000  inst.: 2014722 (ipc= 9.2) sim_rate=23984 (inst/sec) elapsed = 0:0:01:24 / Wed May 13 09:56:59 2015
GPGPU-Sim uArch: cycles simulated: 222500  inst.: 2028416 (ipc= 9.1) sim_rate=23863 (inst/sec) elapsed = 0:0:01:25 / Wed May 13 09:57:00 2015
GPGPU-Sim uArch: cycles simulated: 226000  inst.: 2041820 (ipc= 9.0) sim_rate=23742 (inst/sec) elapsed = 0:0:01:26 / Wed May 13 09:57:01 2015
GPGPU-Sim PTX: 2100000 instructions simulated : ctaid=(0,0,0) tid=(24,0,0)
GPGPU-Sim uArch: cycles simulated: 229500  inst.: 2055084 (ipc= 9.0) sim_rate=23621 (inst/sec) elapsed = 0:0:01:27 / Wed May 13 09:57:02 2015
GPGPU-Sim uArch: cycles simulated: 233000  inst.: 2068636 (ipc= 8.9) sim_rate=23507 (inst/sec) elapsed = 0:0:01:28 / Wed May 13 09:57:03 2015
GPGPU-Sim uArch: cycles simulated: 236500  inst.: 2082292 (ipc= 8.8) sim_rate=23396 (inst/sec) elapsed = 0:0:01:29 / Wed May 13 09:57:04 2015
GPGPU-Sim uArch: cycles simulated: 240000  inst.: 2095793 (ipc= 8.7) sim_rate=23286 (inst/sec) elapsed = 0:0:01:30 / Wed May 13 09:57:05 2015
GPGPU-Sim uArch: cycles simulated: 243500  inst.: 2109350 (ipc= 8.7) sim_rate=23179 (inst/sec) elapsed = 0:0:01:31 / Wed May 13 09:57:06 2015
GPGPU-Sim uArch: cycles simulated: 247500  inst.: 2124579 (ipc= 8.6) sim_rate=23093 (inst/sec) elapsed = 0:0:01:32 / Wed May 13 09:57:07 2015
GPGPU-Sim uArch: cycles simulated: 251000  inst.: 2137952 (ipc= 8.5) sim_rate=22988 (inst/sec) elapsed = 0:0:01:33 / Wed May 13 09:57:08 2015
GPGPU-Sim PTX: 2200000 instructions simulated : ctaid=(0,0,0) tid=(18,0,0)
GPGPU-Sim uArch: cycles simulated: 254500  inst.: 2151517 (ipc= 8.5) sim_rate=22888 (inst/sec) elapsed = 0:0:01:34 / Wed May 13 09:57:09 2015
GPGPU-Sim uArch: cycles simulated: 258000  inst.: 2164847 (ipc= 8.4) sim_rate=22787 (inst/sec) elapsed = 0:0:01:35 / Wed May 13 09:57:10 2015
GPGPU-Sim uArch: cycles simulated: 261000  inst.: 2176224 (ipc= 8.3) sim_rate=22669 (inst/sec) elapsed = 0:0:01:36 / Wed May 13 09:57:11 2015
GPGPU-Sim uArch: cycles simulated: 264500  inst.: 2189797 (ipc= 8.3) sim_rate=22575 (inst/sec) elapsed = 0:0:01:37 / Wed May 13 09:57:12 2015
GPGPU-Sim uArch: cycles simulated: 268000  inst.: 2203331 (ipc= 8.2) sim_rate=22482 (inst/sec) elapsed = 0:0:01:38 / Wed May 13 09:57:13 2015
GPGPU-Sim uArch: cycles simulated: 271500  inst.: 2216487 (ipc= 8.2) sim_rate=22388 (inst/sec) elapsed = 0:0:01:39 / Wed May 13 09:57:14 2015
GPGPU-Sim uArch: cycles simulated: 275000  inst.: 2230513 (ipc= 8.1) sim_rate=22305 (inst/sec) elapsed = 0:0:01:40 / Wed May 13 09:57:15 2015
GPGPU-Sim PTX: 2300000 instructions simulated : ctaid=(0,0,0) tid=(31,0,0)
GPGPU-Sim uArch: cycles simulated: 278500  inst.: 2243754 (ipc= 8.1) sim_rate=22215 (inst/sec) elapsed = 0:0:01:41 / Wed May 13 09:57:16 2015
GPGPU-Sim uArch: cycles simulated: 282000  inst.: 2257064 (ipc= 8.0) sim_rate=22128 (inst/sec) elapsed = 0:0:01:42 / Wed May 13 09:57:17 2015
GPGPU-Sim uArch: cycles simulated: 285500  inst.: 2270734 (ipc= 8.0) sim_rate=22045 (inst/sec) elapsed = 0:0:01:43 / Wed May 13 09:57:18 2015
GPGPU-Sim uArch: cycles simulated: 289000  inst.: 2284263 (ipc= 7.9) sim_rate=21964 (inst/sec) elapsed = 0:0:01:44 / Wed May 13 09:57:19 2015
GPGPU-Sim uArch: cycles simulated: 292500  inst.: 2297783 (ipc= 7.9) sim_rate=21883 (inst/sec) elapsed = 0:0:01:45 / Wed May 13 09:57:20 2015
GPGPU-Sim uArch: cycles simulated: 296000  inst.: 2311331 (ipc= 7.8) sim_rate=21805 (inst/sec) elapsed = 0:0:01:46 / Wed May 13 09:57:21 2015
GPGPU-Sim uArch: cycles simulated: 299500  inst.: 2324798 (ipc= 7.8) sim_rate=21727 (inst/sec) elapsed = 0:0:01:47 / Wed May 13 09:57:22 2015
GPGPU-Sim PTX: 2400000 instructions simulated : ctaid=(0,0,0) tid=(7,0,0)
GPGPU-Sim uArch: cycles simulated: 303500  inst.: 2340199 (ipc= 7.7) sim_rate=21668 (inst/sec) elapsed = 0:0:01:48 / Wed May 13 09:57:23 2015
GPGPU-Sim uArch: cycles simulated: 306500  inst.: 2351894 (ipc= 7.7) sim_rate=21577 (inst/sec) elapsed = 0:0:01:49 / Wed May 13 09:57:24 2015
GPGPU-Sim uArch: cycles simulated: 310000  inst.: 2365213 (ipc= 7.6) sim_rate=21501 (inst/sec) elapsed = 0:0:01:50 / Wed May 13 09:57:25 2015
GPGPU-Sim uArch: cycles simulated: 313500  inst.: 2378516 (ipc= 7.6) sim_rate=21428 (inst/sec) elapsed = 0:0:01:51 / Wed May 13 09:57:26 2015
GPGPU-Sim uArch: cycles simulated: 316500  inst.: 2390336 (ipc= 7.6) sim_rate=21342 (inst/sec) elapsed = 0:0:01:52 / Wed May 13 09:57:27 2015
GPGPU-Sim uArch: cycles simulated: 320000  inst.: 2403635 (ipc= 7.5) sim_rate=21271 (inst/sec) elapsed = 0:0:01:53 / Wed May 13 09:57:28 2015
GPGPU-Sim uArch: cycles simulated: 323500  inst.: 2417492 (ipc= 7.5) sim_rate=21206 (inst/sec) elapsed = 0:0:01:54 / Wed May 13 09:57:29 2015
GPGPU-Sim PTX: 2500000 instructions simulated : ctaid=(0,0,0) tid=(2,0,0)
GPGPU-Sim uArch: cycles simulated: 327000  inst.: 2430620 (ipc= 7.4) sim_rate=21135 (inst/sec) elapsed = 0:0:01:55 / Wed May 13 09:57:30 2015
GPGPU-Sim uArch: cycles simulated: 330500  inst.: 2444307 (ipc= 7.4) sim_rate=21071 (inst/sec) elapsed = 0:0:01:56 / Wed May 13 09:57:31 2015
GPGPU-Sim uArch: cycles simulated: 334000  inst.: 2457538 (ipc= 7.4) sim_rate=21004 (inst/sec) elapsed = 0:0:01:57 / Wed May 13 09:57:32 2015
GPGPU-Sim uArch: cycles simulated: 337500  inst.: 2470995 (ipc= 7.3) sim_rate=20940 (inst/sec) elapsed = 0:0:01:58 / Wed May 13 09:57:33 2015
GPGPU-Sim uArch: cycles simulated: 341000  inst.: 2484858 (ipc= 7.3) sim_rate=20881 (inst/sec) elapsed = 0:0:01:59 / Wed May 13 09:57:34 2015
GPGPU-Sim uArch: cycles simulated: 344500  inst.: 2498145 (ipc= 7.3) sim_rate=20817 (inst/sec) elapsed = 0:0:02:00 / Wed May 13 09:57:35 2015
GPGPU-Sim uArch: cycles simulated: 348000  inst.: 2511766 (ipc= 7.2) sim_rate=20758 (inst/sec) elapsed = 0:0:02:01 / Wed May 13 09:57:36 2015
GPGPU-Sim uArch: cycles simulated: 351500  inst.: 2525169 (ipc= 7.2) sim_rate=20698 (inst/sec) elapsed = 0:0:02:02 / Wed May 13 09:57:37 2015
GPGPU-Sim PTX: 2600000 instructions simulated : ctaid=(0,0,0) tid=(24,0,0)
GPGPU-Sim uArch: cycles simulated: 355500  inst.: 2540495 (ipc= 7.1) sim_rate=20654 (inst/sec) elapsed = 0:0:02:03 / Wed May 13 09:57:38 2015
GPGPU-Sim uArch: cycles simulated: 359000  inst.: 2554197 (ipc= 7.1) sim_rate=20598 (inst/sec) elapsed = 0:0:02:04 / Wed May 13 09:57:39 2015
GPGPU-Sim uArch: cycles simulated: 362500  inst.: 2567673 (ipc= 7.1) sim_rate=20541 (inst/sec) elapsed = 0:0:02:05 / Wed May 13 09:57:40 2015
GPGPU-Sim uArch: cycles simulated: 366000  inst.: 2580986 (ipc= 7.1) sim_rate=20484 (inst/sec) elapsed = 0:0:02:06 / Wed May 13 09:57:41 2015
GPGPU-Sim uArch: cycles simulated: 369500  inst.: 2594175 (ipc= 7.0) sim_rate=20426 (inst/sec) elapsed = 0:0:02:07 / Wed May 13 09:57:42 2015
GPGPU-Sim uArch: cycles simulated: 373000  inst.: 2607835 (ipc= 7.0) sim_rate=20373 (inst/sec) elapsed = 0:0:02:08 / Wed May 13 09:57:43 2015
GPGPU-Sim uArch: cycles simulated: 376500  inst.: 2621071 (ipc= 7.0) sim_rate=20318 (inst/sec) elapsed = 0:0:02:09 / Wed May 13 09:57:44 2015
GPGPU-Sim PTX: 2700000 instructions simulated : ctaid=(0,0,0) tid=(21,0,0)
GPGPU-Sim uArch: cycles simulated: 380000  inst.: 2634588 (ipc= 6.9) sim_rate=20266 (inst/sec) elapsed = 0:0:02:10 / Wed May 13 09:57:45 2015
GPGPU-Sim uArch: cycles simulated: 383500  inst.: 2648214 (ipc= 6.9) sim_rate=20215 (inst/sec) elapsed = 0:0:02:11 / Wed May 13 09:57:46 2015
GPGPU-Sim uArch: cycles simulated: 387000  inst.: 2661847 (ipc= 6.9) sim_rate=20165 (inst/sec) elapsed = 0:0:02:12 / Wed May 13 09:57:47 2015
GPGPU-Sim uArch: cycles simulated: 390500  inst.: 2675427 (ipc= 6.9) sim_rate=20115 (inst/sec) elapsed = 0:0:02:13 / Wed May 13 09:57:48 2015
GPGPU-Sim uArch: cycles simulated: 394500  inst.: 2690647 (ipc= 6.8) sim_rate=20079 (inst/sec) elapsed = 0:0:02:14 / Wed May 13 09:57:49 2015
GPGPU-Sim uArch: cycles simulated: 398000  inst.: 2704186 (ipc= 6.8) sim_rate=20031 (inst/sec) elapsed = 0:0:02:15 / Wed May 13 09:57:50 2015
GPGPU-Sim uArch: cycles simulated: 401500  inst.: 2717634 (ipc= 6.8) sim_rate=19982 (inst/sec) elapsed = 0:0:02:16 / Wed May 13 09:57:51 2015
GPGPU-Sim PTX: 2800000 instructions simulated : ctaid=(0,0,0) tid=(36,0,0)
GPGPU-Sim uArch: cycles simulated: 405000  inst.: 2731309 (ipc= 6.7) sim_rate=19936 (inst/sec) elapsed = 0:0:02:17 / Wed May 13 09:57:52 2015
GPGPU-Sim uArch: cycles simulated: 408500  inst.: 2744608 (ipc= 6.7) sim_rate=19888 (inst/sec) elapsed = 0:0:02:18 / Wed May 13 09:57:53 2015
GPGPU-Sim uArch: cycles simulated: 412000  inst.: 2758154 (ipc= 6.7) sim_rate=19842 (inst/sec) elapsed = 0:0:02:19 / Wed May 13 09:57:54 2015
GPGPU-Sim uArch: cycles simulated: 415500  inst.: 2771472 (ipc= 6.7) sim_rate=19796 (inst/sec) elapsed = 0:0:02:20 / Wed May 13 09:57:55 2015
GPGPU-Sim uArch: cycles simulated: 419000  inst.: 2785480 (ipc= 6.6) sim_rate=19755 (inst/sec) elapsed = 0:0:02:21 / Wed May 13 09:57:56 2015
GPGPU-Sim uArch: cycles simulated: 423000  inst.: 2800584 (ipc= 6.6) sim_rate=19722 (inst/sec) elapsed = 0:0:02:22 / Wed May 13 09:57:57 2015
GPGPU-Sim uArch: cycles simulated: 426500  inst.: 2814153 (ipc= 6.6) sim_rate=19679 (inst/sec) elapsed = 0:0:02:23 / Wed May 13 09:57:58 2015
GPGPU-Sim PTX: 2900000 instructions simulated : ctaid=(0,0,0) tid=(16,0,0)
GPGPU-Sim uArch: cycles simulated: 430000  inst.: 2827805 (ipc= 6.6) sim_rate=19637 (inst/sec) elapsed = 0:0:02:24 / Wed May 13 09:57:59 2015
GPGPU-Sim uArch: cycles simulated: 433500  inst.: 2841050 (ipc= 6.6) sim_rate=19593 (inst/sec) elapsed = 0:0:02:25 / Wed May 13 09:58:00 2015
GPGPU-Sim uArch: cycles simulated: 437000  inst.: 2854445 (ipc= 6.5) sim_rate=19550 (inst/sec) elapsed = 0:0:02:26 / Wed May 13 09:58:01 2015
GPGPU-Sim uArch: cycles simulated: 440500  inst.: 2867790 (ipc= 6.5) sim_rate=19508 (inst/sec) elapsed = 0:0:02:27 / Wed May 13 09:58:02 2015
GPGPU-Sim uArch: cycles simulated: 444000  inst.: 2881095 (ipc= 6.5) sim_rate=19466 (inst/sec) elapsed = 0:0:02:28 / Wed May 13 09:58:03 2015
[...]
traffic_breakdown_coretomem[CONST_ACC_R] = 120 {8:15,}
traffic_breakdown_coretomem[GLOBAL_ACC_R] = 72 {8:9,}
traffic_breakdown_coretomem[GLOBAL_ACC_W] = 20480 {40:512,}
traffic_breakdown_coretomem[INST_ACC_R] = 800 {8:100,}
traffic_breakdown_memtocore[CONST_ACC_R] = 1080 {72:15,}
traffic_breakdown_memtocore[GLOBAL_ACC_R] = 1224 {136:9,}
traffic_breakdown_memtocore[GLOBAL_ACC_W] = 4096 {8:512,}
traffic_breakdown_memtocore[INST_ACC_R] = 13600 {136:100,}
maxmrqlatency = 29 
maxdqlatency = 0 
maxmflatency = 367 
averagemflatency = 178 
max_icnt2mem_latency = 118 
max_icnt2sh_latency = 2507597 
mrq_lat_table:33 	2 	7 	9 	7 	0 	0 	0 	0 	0 	0 	0 	0 	0 	0 	0 	0 	0 	0 	0 	0 	0 	0 	0 	0 	0 	0 	0 	0 	0 	0 	0 	
dq_lat_table:0 	0 	0 	0 	0 	0 	0 	0 	0 	0 	0 	0 	0 	0 	0 	0 	0 	0 	0 	0 	0 	0 	0 	0 	0 	0 	0 	0 	0 	0 	0 	0 	
mf_lat_table:0 	0 	0 	0 	0 	0 	0 	457 	79 	0 	0 	0 	0 	0 	0 	0 	0 	0 	0 	0 	0 	0 	0 	0 	0 	0 	0 	0 	0 	0 	0 	0 	
icnt2mem_lat_table:0 	0 	0 	454 	97 	41 	44 	0 	0 	0 	0 	0 	0 	0 	0 	0 	0 	0 	0 	0 	0 	0 	0 	0 	
icnt2sh_lat_table:0 	0 	0 	11 	13 	0 	0 	0 	0 	0 	0 	139 	116 	0 	0 	0 	0 	0 	0 	0 	256 	1 	0 	0 	
mf_lat_pw_table:0 	0 	0 	0 	0 	0 	0 	13 	5 	0 	0 	0 	0 	0 	0 	0 	0 	0 	0 	0 	0 	0 	0 	0 	0 	0 	0 	0 	0 	0 	0 	0 	
maximum concurrent accesses to same row:
dram[0]:         1         0         0         0         0         0         0         0         0         0         0         0         0         0         0         0 
dram[1]:         0         0         0         0         0         0         0         0         0         0         0         0         0         0         0         0 
dram[2]:         0         0         0         0         0         0         0         0         0         0         0         0         0         0         0         0 
dram[3]:         0         0         0         0         0         0         0         0         0         0         0         0         0         0         0         0 
dram[4]:         0         0         0         0         0         0         0         0         0         0         0         0         0         0         0         0 
dram[5]:         0         0         0         0         0         0         0         0         0         0         0         0         0         0         0         0 
maximum service time to same row:
dram[0]:       571         0         0         0         0         0         0         0         0         0         0         0         0         0         0         0 
dram[1]:      2006         0         0         0         0         0         0         0         0         0         0         0         0         0         0         0 
dram[2]:      2691      2444         0         0         0      1416         0         0         0      1716         0         0         0      2010         0         0 
dram[3]:       824      3138         0         0         0         0         0         0         0         0         0         0         0         0         0         0 
dram[4]:      1476      3829         0         0         0         0         0         0         0         0         0         0         0         0         0         0 
dram[5]:      2147      4800         0         0         0         0         0         0         0         0         0         0         0         0         0         0 
average row accesses per activate:
dram[0]:  1.000000      -nan      -nan      -nan      -nan      -nan      -nan      -nan      -nan      -nan      -nan      -nan      -nan      -nan      -nan      -nan 
dram[1]:  2.000000      -nan      -nan      -nan      -nan      -nan      -nan      -nan      -nan      -nan      -nan      -nan      -nan      -nan      -nan      -nan 
dram[2]:  2.000000 10.000000      -nan      -nan      -nan  2.000000      -nan      -nan      -nan  2.000000      -nan      -nan      -nan  2.000000      -nan      -nan 
dram[3]:  2.000000 10.000000      -nan      -nan      -nan      -nan      -nan      -nan      -nan      -nan      -nan      -nan      -nan      -nan      -nan      -nan 
dram[4]:  2.000000 10.000000      -nan      -nan      -nan      -nan      -nan      -nan      -nan      -nan      -nan      -nan      -nan      -nan      -nan      -nan 
dram[5]:  1.000000 10.000000      -nan      -nan      -nan      -nan      -nan      -nan      -nan      -nan      -nan      -nan      -nan      -nan      -nan      -nan 
average row locality = 58/15 = 3.866667
number of total memory accesses made:
dram[0]:         0         0         0         0         0         0         0         0         0         0         0         0         0         0         0         0 
dram[1]:         0         0         0         0         0         0         0         0         0         0         0         0         0         0         0         0 
dram[2]:         0         0         0         0         0         0         0         0         0         0         0         0         0         0         0         0 
dram[3]:         0         0         0         0         0         0         0         0         0         0         0         0         0         0         0         0 
dram[4]:         0         0         0         0         0         0         0         0         0         0         0         0         0         0         0         0 
dram[5]:         0         0         0         0         0         0         0         0         0         0         0         0         0         0         0         0 
total accesses: 0
min_bank_accesses = 0!
min_chip_accesses = 0!
number of total read accesses:
dram[0]:         3         0         0         0         0         0         0         0         0         0         0         0         0         0         0         0 
dram[1]:         2         0         0         0         0         0         0         0         0         0         0         0         0         0         0         0 
dram[2]:         2         2         0         0         0         2         0         0         0         2         0         0         0         2         0         0 
dram[3]:         2         2         0         0         0         0         0         0         0         0         0         0         0         0         0         0 
dram[4]:         2         2         0         0         0         0         0         0         0         0         0         0         0         0         0         0 
dram[5]:         1         2         0         0         0         0         0         0         0         0         0         0         0         0         0         0 
total reads: 26
min_bank_accesses = 0!
chip skew: 10/2 = 5.00
number of total write accesses:
dram[0]:         0         0         0         0         0         0         0         0         0         0         0         0         0         0         0         0 
dram[1]:         0         0         0         0         0         0         0         0         0         0         0         0         0         0         0         0 
dram[2]:         0         8         0         0         0         0         0         0         0         0         0         0         0         0         0         0 
dram[3]:         0         8         0         0         0         0         0         0         0         0         0         0         0         0         0         0 
dram[4]:         0         8         0         0         0         0         0         0         0         0         0         0         0         0         0         0 
dram[5]:         0         8         0         0         0         0         0         0         0         0         0         0         0         0         0         0 
total reads: 32
min_bank_accesses = 0!
min_chip_accesses = 0!
average mf latency per bank:
dram[0]:       1300    none      none      none      none      none      none      none      none      none      none      none      none      none      none      none  
dram[1]:          0    none      none      none      none      none      none      none      none      none      none      none      none      none      none      none  
dram[2]:          0      2591    none      none      none         342    none      none      none         353    none      none      none         343    none      none  
dram[3]:          0      2405    none      none      none      none      none      none      none      none      none      none      none      none      none      none  
dram[4]:          0      2061    none      none      none      none      none      none      none      none      none      none      none      none      none      none  
dram[5]:          0      1934    none      none      none      none      none      none      none      none      none      none      none      none      none      none  
maximum mf latency per bank:
dram[0]:        278         0         0         0         0         0         0         0         0         0         0         0         0         0         0         0
dram[1]:          0         0         0         0         0         0         0         0         0         0         0         0         0         0         0         0
dram[2]:          0       367         0         0         0       273         0         0         0       273         0         0         0       274         0         0
dram[3]:          0       284         0         0         0         0         0         0         0         0         0         0         0         0         0         0
dram[4]:          0       312         0         0         0         0         0         0         0         0         0         0         0         0         0         0
dram[5]:          0       263         0         0         0         0         0         0         0         0         0         0         0         0         0         0

Number of Memory Banks Accessed per Memory Operation per Warp (from 0):
0	0	0	0	0	0	0	0	0	0	0	0	0	0	0	0	0	0	0	0	0	0	0	0	0	0	0	0	0	0	0	0	0	0	0	0	0	0	0	0	0	0	0	0	0	0	0	0	0	0	0	0	0	0	0	0	0	0	0	0	0	0	0	0	0	0	0	0	0	0	0	0	0	0	0	0	0	0	0	0	0	0	0	0	0	0	0	0	0	0	0	0	0	0	0	0	
Average # of Memory Banks Accessed per Memory Operation per Warp=-nan

position of mrq chosen
0	0	0	0	0	0	0	0	0	0	0	0	0	0	0	0	

average position of mrq chosen = -nan
Memory Partition 0: 
Cache L2_bank_000:
MSHR contents

Cache L2_bank_001:
MSHR contents

In Dram Latency Queue (total = 0): 
DRAM[0]: 16 bks, busW=4 BL=8 CL=12, tRRD=2 tCCD=6, tRCD=12 tRAS=28 tRP=12 tRC=40
n_cmd=3310027 n_nop=3310016 n_act=3 n_pre=2 n_req=3 n_rd=6 n_write=0 bw_util=3.625e-06
n_activity=144 dram_eff=0.08333
bk0: 6a 3309955i bk1: 0a 3310025i bk2: 0a 3310027i bk3: 0a 3310027i bk4: 0a 3310027i bk5: 0a 3310027i bk6: 0a 3310027i bk7: 0a 3310027i bk8: 0a 3310027i bk9: 0a 3310027i bk10: 0a 3310027i bk11: 0a 3310027i bk12: 0a 3310027i bk13: 0a 3310027i bk14: 0a 3310027i bk15: 0a 3310027i 
dram_util_bins: 0 0 0 0 0 0 0 0 0 0
dram_eff_bins: 0 0 0 0 0 0 0 0 0 0
mrqq: max=0 avg=0
Memory Partition 1: 
Cache L2_bank_002:
MSHR contents

Cache L2_bank_003:
MSHR contents

In Dram Latency Queue (total = 0): 
DRAM[1]: 16 bks, busW=4 BL=8 CL=12, tRRD=2 tCCD=6, tRCD=12 tRAS=28 tRP=12 tRC=40
n_cmd=3310027 n_nop=3310022 n_act=1 n_pre=0 n_req=2 n_rd=4 n_write=0 bw_util=2.417e-06
n_activity=55 dram_eff=0.1455
bk0: 4a 3310007i bk1: 0a 3310027i bk2: 0a 3310027i bk3: 0a 3310027i bk4: 0a 3310027i bk5: 0a 3310027i bk6: 0a 3310027i bk7: 0a 3310027i bk8: 0a 3310027i bk9: 0a 3310027i bk10: 0a 3310027i bk11: 0a 3310027i bk12: 0a 3310027i bk13: 0a 3310027i bk14: 0a 3310027i bk15: 0a 3310027i 
dram_util_bins: 0 0 0 0 0 0 0 0 0 0
dram_eff_bins: 0 0 0 0 0 0 0 0 0 0
mrqq: max=0 avg=0
Memory Partition 2: 
Cache L2_bank_004:
MSHR contents

Cache L2_bank_005:
MSHR contents

In Dram Latency Queue (total = 0): 
DRAM[2]: 16 bks, busW=4 BL=8 CL=12, tRRD=2 tCCD=6, tRCD=12 tRAS=28 tRP=12 tRC=40
n_cmd=3310027 n_nop=3309994 n_act=5 n_pre=0 n_req=18 n_rd=20 n_write=8 bw_util=1.692e-05
n_activity=275 dram_eff=0.2036
bk0: 4a 3310008i bk1: 4a 3309958i bk2: 0a 3310026i bk3: 0a 3310026i bk4: 0a 3310027i bk5: 4a 3310004i bk6: 0a 3310026i bk7: 0a 3310026i bk8: 0a 3310027i bk9: 4a 3310004i bk10: 0a 3310025i bk11: 0a 3310026i bk12: 0a 3310029i bk13: 4a 3310006i bk14: 0a 3310027i bk15: 0a 3310027i 
dram_util_bins: 0 0 0 0 0 0 0 0 0 0
dram_eff_bins: 0 0 0 0 0 0 0 0 0 0
mrqq: max=5 avg=5.40781e-05
Memory Partition 3: 
Cache L2_bank_006:
MSHR contents

Cache L2_bank_007:
MSHR contents

In Dram Latency Queue (total = 0): 
DRAM[3]: 16 bks, busW=4 BL=8 CL=12, tRRD=2 tCCD=6, tRCD=12 tRAS=28 tRP=12 tRC=40
n_cmd=3310027 n_nop=3310009 n_act=2 n_pre=0 n_req=12 n_rd=8 n_write=8 bw_util=9.668e-06
n_activity=148 dram_eff=0.2162
bk0: 4a 3310007i bk1: 4a 3309955i bk2: 0a 3310026i bk3: 0a 3310027i bk4: 0a 3310027i bk5: 0a 3310027i bk6: 0a 3310027i bk7: 0a 3310027i bk8: 0a 3310027i bk9: 0a 3310027i bk10: 0a 3310027i bk11: 0a 3310027i bk12: 0a 3310027i bk13: 0a 3310027i bk14: 0a 3310027i bk15: 0a 3310027i 
dram_util_bins: 0 0 0 0 0 0 0 0 0 0
dram_eff_bins: 0 0 0 0 0 0 0 0 0 0
mrqq: max=3 avg=3.74619e-05
Memory Partition 4: 
Cache L2_bank_008:
MSHR contents

Cache L2_bank_009:
MSHR contents

In Dram Latency Queue (total = 0): 
DRAM[4]: 16 bks, busW=4 BL=8 CL=12, tRRD=2 tCCD=6, tRCD=12 tRAS=28 tRP=12 tRC=40
n_cmd=3310027 n_nop=3310009 n_act=2 n_pre=0 n_req=12 n_rd=8 n_write=8 bw_util=9.668e-06
n_activity=156 dram_eff=0.2051
bk0: 4a 3310007i bk1: 4a 3309957i bk2: 0a 3310026i bk3: 0a 3310027i bk4: 0a 3310027i bk5: 0a 3310027i bk6: 0a 3310027i bk7: 0a 3310027i bk8: 0a 3310027i bk9: 0a 3310027i bk10: 0a 3310027i bk11: 0a 3310027i bk12: 0a 3310027i bk13: 0a 3310027i bk14: 0a 3310027i bk15: 0a 3310027i 
dram_util_bins: 0 0 0 0 0 0 0 0 0 0
dram_eff_bins: 0 0 0 0 0 0 0 0 0 0
mrqq: max=2 avg=1.54077e-05
Memory Partition 5: 
Cache L2_bank_010:
MSHR contents

Cache L2_bank_011:
MSHR contents

In Dram Latency Queue (total = 0): 
DRAM[5]: 16 bks, busW=4 BL=8 CL=12, tRRD=2 tCCD=6, tRCD=12 tRAS=28 tRP=12 tRC=40
n_cmd=3310027 n_nop=3310011 n_act=2 n_pre=0 n_req=11 n_rd=6 n_write=8 bw_util=8.459e-06
n_activity=141 dram_eff=0.1986
bk0: 2a 3310011i bk1: 4a 3309957i bk2: 0a 3310027i bk3: 0a 3310027i bk4: 0a 3310027i bk5: 0a 3310027i bk6: 0a 3310027i bk7: 0a 3310027i bk8: 0a 3310027i bk9: 0a 3310027i bk10: 0a 3310027i bk11: 0a 3310027i bk12: 0a 3310027i bk13: 0a 3310027i bk14: 0a 3310027i bk15: 0a 3310027i 
dram_util_bins: 0 0 0 0 0 0 0 0 0 0
dram_eff_bins: 0 0 0 0 0 0 0 0 0 0
mrqq: max=1 avg=7.55281e-06

========= L2 cache stats =========
L2_cache_bank[0]: Access = 32, Miss = 3, Miss_rate = 0.094, Pending_hits = 6, Reservation_fails = 225
L2_cache_bank[1]: Access = 0, Miss = 0, Miss_rate = -nan, Pending_hits = 0, Reservation_fails = 0
L2_cache_bank[2]: Access = 4, Miss = 2, Miss_rate = 0.500, Pending_hits = 0, Reservation_fails = 0
L2_cache_bank[3]: Access = 0, Miss = 0, Miss_rate = -nan, Pending_hits = 0, Reservation_fails = 0
L2_cache_bank[4]: Access = 4, Miss = 2, Miss_rate = 0.500, Pending_hits = 0, Reservation_fails = 0
L2_cache_bank[5]: Access = 137, Miss = 8, Miss_rate = 0.058, Pending_hits = 6, Reservation_fails = 118
L2_cache_bank[6]: Access = 30, Miss = 2, Miss_rate = 0.067, Pending_hits = 6, Reservation_fails = 200
L2_cache_bank[7]: Access = 128, Miss = 2, Miss_rate = 0.016, Pending_hits = 6, Reservation_fails = 227
L2_cache_bank[8]: Access = 30, Miss = 2, Miss_rate = 0.067, Pending_hits = 6, Reservation_fails = 190
L2_cache_bank[9]: Access = 128, Miss = 2, Miss_rate = 0.016, Pending_hits = 6, Reservation_fails = 157
L2_cache_bank[10]: Access = 15, Miss = 1, Miss_rate = 0.067, Pending_hits = 3, Reservation_fails = 100
L2_cache_bank[11]: Access = 128, Miss = 2, Miss_rate = 0.016, Pending_hits = 6, Reservation_fails = 116
L2_total_cache_accesses = 636
L2_total_cache_misses = 26
L2_total_cache_miss_rate = 0.0409
L2_total_cache_pending_hits = 45
L2_total_cache_reservation_fails = 1333
L2_total_cache_breakdown:
	L2_cache_stats_breakdown[GLOBAL_ACC_R][HIT] = 3
	L2_cache_stats_breakdown[GLOBAL_ACC_R][MISS] = 6
	L2_cache_stats_breakdown[CONST_ACC_R][HIT] = 11
	L2_cache_stats_breakdown[CONST_ACC_R][HIT_RESERVED] = 3
	L2_cache_stats_breakdown[CONST_ACC_R][MISS] = 1
	L2_cache_stats_breakdown[CONST_ACC_R][RESERVATION_FAIL] = 109
	L2_cache_stats_breakdown[GLOBAL_ACC_W][HIT] = 480
	L2_cache_stats_breakdown[GLOBAL_ACC_W][HIT_RESERVED] = 24
	L2_cache_stats_breakdown[GLOBAL_ACC_W][MISS] = 8
	L2_cache_stats_breakdown[GLOBAL_ACC_W][RESERVATION_FAIL] = 618
	L2_cache_stats_breakdown[INST_ACC_R][HIT] = 71
	L2_cache_stats_breakdown[INST_ACC_R][HIT_RESERVED] = 18
	L2_cache_stats_breakdown[INST_ACC_R][MISS] = 11
	L2_cache_stats_breakdown[INST_ACC_R][RESERVATION_FAIL] = 606
L2_cache_data_port_util = 0.000
L2_cache_fill_port_util = 0.000

icnt_total_pkts_mem_to_simt=1102
icnt_total_pkts_simt_to_mem=1148
LD_mem_lat_dist  0 0 0 0 0 0 0 0 0 0 0 0 0 0 0 0 0 0 0 0 0 0 0 0 0 0 0
ST_mem_lat_dist  0 0 0 0 0 0 0 0 0 0 0 0 0 0 0 0 0 0 0 0 0 0 0 0 0 0 0
----------------------------Interconnect-DETAILS--------------------------------
Class 0:
Packet latency average = 11.6913
	minimum = 6
	maximum = 115
Network latency average = 11.6894
	minimum = 6
	maximum = 115
Slowest packet = 791
Flit latency average = 12.6287
	minimum = 6
	maximum = 114
Slowest flit = 1532
Fragmentation average = 0
	minimum = 0
	maximum = 0
Injected packet rate average = 1.60863e-05
	minimum = 0 (at node 16)
	maximum = 5.51137e-05 (at node 20)
Accepted packet rate average = 1.60863e-05
	minimum = 0 (at node 16)
	maximum = 5.51137e-05 (at node 20)
Injected flit rate average = 2.48606e-05
	minimum = 0 (at node 16)
	maximum = 6.49848e-05 (at node 20)
Accepted flit rate average= 2.48606e-05
	minimum = 0 (at node 16)
	maximum = 0.00010776 (at node 20)
Injected packet length average = 1.54545
Accepted packet length average = 1.54545
Total in-flight flits = 0 (0 measured)
====== Overall Traffic Statistics ======
====== Traffic class 0 ======
Packet latency average = 12.7045 (2 samples)
	minimum = 6 (2 samples)
	maximum = 101.5 (2 samples)
Network latency average = 12.1169 (2 samples)
	minimum = 6 (2 samples)
	maximum = 101.5 (2 samples)
Flit latency average = 12.186 (2 samples)
	minimum = 6 (2 samples)
	maximum = 100.5 (2 samples)
Fragmentation average = 0 (2 samples)
	minimum = 0 (2 samples)
	maximum = 0 (2 samples)
Injected packet rate average = 1.87076e-05 (2 samples)
	minimum = 0 (2 samples)
	maximum = 5.46481e-05 (2 samples)
Accepted packet rate average = 1.87076e-05 (2 samples)
	minimum = 0 (2 samples)
	maximum = 5.46481e-05 (2 samples)
Injected flit rate average = 3.29852e-05 (2 samples)
	minimum = 0 (2 samples)
	maximum = 9.05451e-05 (2 samples)
Accepted flit rate average = 3.29852e-05 (2 samples)
	minimum = 0 (2 samples)
	maximum = 0.00010574 (2 samples)
Injected packet size average = 1.7632 (2 samples)
Accepted packet size average = 1.7632 (2 samples)
Hops average = 1 (2 samples)
----------------------------END-of-Interconnect-DETAILS-------------------------


gpgpu_simulation_time = 0 days, 0 hrs, 11 min, 42 sec (702 sec)
gpgpu_simulation_rate = 10302 (inst/sec)
gpgpu_simulation_rate = 3572 (cycle/sec)
GPU: 11 queen = 2680  time = 701599.000000 msec
