

        *** GPGPU-Sim Simulator Version 3.2.2  [build 0] ***


GPGPU-Sim PTX: simulation mode 0 (can change with PTX_SIM_MODE_FUNC environment variable:
               1=functional simulation only, 0=detailed performance simulator)
GPGPU-Sim: Configuration options:

-network_mode                           1 # Interconnection network mode
-inter_config_file   config_fermi_islip.icnt # Interconnection network config file
-gpgpu_ptx_use_cuobjdump                    1 # Use cuobjdump to extract ptx and sass from binaries
-gpgpu_experimental_lib_support                    0 # Try to extract code from cuda libraries [Broken because of unknown cudaGetExportTable]
-gpgpu_ptx_convert_to_ptxplus                    0 # Convert SASS (native ISA) to ptxplus and run ptxplus
-gpgpu_ptx_force_max_capability                   20 # Force maximum compute capability
-gpgpu_ptx_inst_debug_to_file                    0 # Dump executed instructions' debug information to file
-gpgpu_ptx_inst_debug_file       inst_debug.txt # Executed instructions' debug output file
-gpgpu_ptx_inst_debug_thread_uid                    1 # Thread UID for executed instructions' debug output
-gpgpu_simd_model                       1 # 1 = post-dominator
-gpgpu_shader_core_pipeline              1536:32 # shader core pipeline config, i.e., {<nthread>:<warpsize>}
-gpgpu_tex_cache:l1  4:128:24,L:R:m:N:L,F:128:4,128:2 # per-shader L1 texture cache  (READ-ONLY) config  {<nsets>:<bsize>:<assoc>,<rep>:<wr>:<alloc>:<wr_alloc>,<mshr>:<N>:<merge>,<mq>:<rf>}
-gpgpu_const_cache:l1 64:64:2,L:R:f:N:L,A:2:32,4 # per-shader L1 constant memory cache  (READ-ONLY) config  {<nsets>:<bsize>:<assoc>,<rep>:<wr>:<alloc>:<wr_alloc>,<mshr>:<N>:<merge>,<mq>} 
-gpgpu_cache:il1     4:128:4,L:R:f:N:L,A:2:32,4 # shader L1 instruction cache config  {<nsets>:<bsize>:<assoc>,<rep>:<wr>:<alloc>:<wr_alloc>,<mshr>:<N>:<merge>,<mq>} 
-gpgpu_cache:dl1     32:128:4,L:L:m:N:H,A:32:8,8 # per-shader L1 data cache config  {<nsets>:<bsize>:<assoc>,<rep>:<wr>:<alloc>:<wr_alloc>,<mshr>:<N>:<merge>,<mq> | none}
-gpgpu_cache:dl1PrefL1                 none # per-shader L1 data cache config  {<nsets>:<bsize>:<assoc>,<rep>:<wr>:<alloc>:<wr_alloc>,<mshr>:<N>:<merge>,<mq> | none}
-gpgpu_cache:dl1PreShared                 none # per-shader L1 data cache config  {<nsets>:<bsize>:<assoc>,<rep>:<wr>:<alloc>:<wr_alloc>,<mshr>:<N>:<merge>,<mq> | none}
-gmem_skip_L1D                          0 # global memory access skip L1D cache (implements -Xptxas -dlcm=cg, default=no skip)
-gpgpu_perfect_mem                      0 # enable perfect memory mode (no cache miss)
-n_regfile_gating_group                    4 # group of lanes that should be read/written together)
-gpgpu_clock_gated_reg_file                    0 # enable clock gated reg file for power calculations
-gpgpu_clock_gated_lanes                    0 # enable clock gated lanes for power calculations
-gpgpu_shader_registers                32768 # Number of registers per shader core. Limits number of concurrent CTAs. (default 8192)
-gpgpu_shader_cta                       8 # Maximum number of concurrent CTAs in shader (default 8)
-gpgpu_num_cta_barriers                   16 # Maximum number of named barriers per CTA (default 16)
-gpgpu_n_clusters                      15 # number of processing clusters
-gpgpu_n_cores_per_cluster                    1 # number of simd cores per cluster
-gpgpu_n_cluster_ejection_buffer_size                    8 # number of packets in ejection buffer
-gpgpu_n_ldst_response_buffer_size                    2 # number of response packets in ld/st unit ejection buffer
-gpgpu_shmem_size                   16384 # Size of shared memory per shader core (default 16kB)
-gpgpu_shmem_size                   49152 # Size of shared memory per shader core (default 16kB)
-gpgpu_shmem_size_PrefL1                16384 # Size of shared memory per shader core (default 16kB)
-gpgpu_shmem_size_PrefShared                16384 # Size of shared memory per shader core (default 16kB)
-gpgpu_shmem_num_banks                   32 # Number of banks in the shared memory in each shader core (default 16)
-gpgpu_shmem_limited_broadcast                    0 # Limit shared memory to do one broadcast per cycle (default on)
-gpgpu_shmem_warp_parts                    1 # Number of portions a warp is divided into for shared memory bank conflict check 
-gpgpu_warpdistro_shader                   -1 # Specify which shader core to collect the warp size distribution from
-gpgpu_warp_issue_shader                    0 # Specify which shader core to collect the warp issue distribution from
-gpgpu_local_mem_map                    1 # Mapping from local memory space address to simulated GPU physical address space (default = enabled)
-gpgpu_num_reg_banks                   16 # Number of register banks (default = 8)
-gpgpu_reg_bank_use_warp_id                    0 # Use warp ID in mapping registers to banks (default = off)
-gpgpu_operand_collector_num_units_sp                    6 # number of collector units (default = 4)
-gpgpu_operand_collector_num_units_sfu                    8 # number of collector units (default = 4)
-gpgpu_operand_collector_num_units_mem                    2 # number of collector units (default = 2)
-gpgpu_operand_collector_num_units_gen                    0 # number of collector units (default = 0)
-gpgpu_operand_collector_num_in_ports_sp                    2 # number of collector unit in ports (default = 1)
-gpgpu_operand_collector_num_in_ports_sfu                    1 # number of collector unit in ports (default = 1)
-gpgpu_operand_collector_num_in_ports_mem                    1 # number of collector unit in ports (default = 1)
-gpgpu_operand_collector_num_in_ports_gen                    0 # number of collector unit in ports (default = 0)
-gpgpu_operand_collector_num_out_ports_sp                    2 # number of collector unit in ports (default = 1)
-gpgpu_operand_collector_num_out_ports_sfu                    1 # number of collector unit in ports (default = 1)
-gpgpu_operand_collector_num_out_ports_mem                    1 # number of collector unit in ports (default = 1)
-gpgpu_operand_collector_num_out_ports_gen                    0 # number of collector unit in ports (default = 0)
-gpgpu_coalesce_arch                   13 # Coalescing arch (default = 13, anything else is off for now)
-gpgpu_num_sched_per_core                    1 # Number of warp schedulers per core
-gpgpu_max_insn_issue_per_warp                    1 # Max number of instructions that can be issued per warp in one cycle by scheduler
-gpgpu_simt_core_sim_order                    1 # Select the simulation order of cores in a cluster (0=Fix, 1=Round-Robin)
-gpgpu_pipeline_widths        2,1,1,2,1,1,2 # Pipeline widths ID_OC_SP,ID_OC_SFU,ID_OC_MEM,OC_EX_SP,OC_EX_SFU,OC_EX_MEM,EX_WB
-gpgpu_num_sp_units                     2 # Number of SP units (default=1)
-gpgpu_num_sfu_units                    1 # Number of SF units (default=1)
-gpgpu_num_mem_units                    1 # Number if ldst units (default=1) WARNING: not hooked up to anything
-gpgpu_scheduler                      gto # Scheduler configuration: < lrr | gto | two_level_active > If two_level_active:<num_active_warps>:<inner_prioritization>:<outer_prioritization>For complete list of prioritization values see shader.h enum scheduler_prioritization_typeDefault: gto
-gpgpu_dram_scheduler                    1 # 0 = fifo, 1 = FR-FCFS (defaul)
-gpgpu_dram_partition_queues              8:8:8:8 # i2$:$2d:d2$:$2i
-l2_ideal                               0 # Use a ideal L2 cache that always hit
-gpgpu_cache:dl2     64:128:8,L:B:m:W:L,A:32:4,4:0,32 # unified banked L2 data cache config  {<nsets>:<bsize>:<assoc>,<rep>:<wr>:<alloc>:<wr_alloc>,<mshr>:<N>:<merge>,<mq>}
-gpgpu_cache:dl2_texture_only                    0 # L2 cache used for texture only
-gpgpu_n_mem                            6 # number of memory modules (e.g. memory controllers) in gpu
-gpgpu_n_sub_partition_per_mchannel                    2 # number of memory subpartition in each memory module
-gpgpu_n_mem_per_ctrlr                    2 # number of memory chips per memory controller
-gpgpu_memlatency_stat                   14 # track and display latency statistics 0x2 enables MC, 0x4 enables queue logs
-gpgpu_frfcfs_dram_sched_queue_size                   16 # 0 = unlimited (default); # entries per chip
-gpgpu_dram_return_queue_size                  116 # 0 = unlimited (default); # entries per chip
-gpgpu_dram_buswidth                    4 # default = 4 bytes (8 bytes per cycle at DDR)
-gpgpu_dram_burst_length                    8 # Burst length of each DRAM request (default = 4 data bus cycle)
-dram_data_command_freq_ratio                    4 # Frequency ratio between DRAM data bus and command bus (default = 2 times, i.e. DDR)
-gpgpu_dram_timing_opt nbk=16:CCD=2:RRD=6:RCD=12:RAS=28:RP=12:RC=40: CL=12:WL=4:CDLR=5:WR=12:nbkgrp=4:CCDL=3:RTPL=2 # DRAM timing parameters = {nbk:tCCD:tRRD:tRCD:tRAS:tRP:tRC:CL:WL:tCDLR:tWR:nbkgrp:tCCDL:tRTPL}
-rop_latency                          120 # ROP queue latency (default 85)
-dram_latency                         100 # DRAM latency (default 30)
-gpgpu_mem_addr_mapping dramid@8;00000000.00000000.00000000.00000000.0000RRRR.RRRRRRRR.BBBCCCCB.CCSSSSSS # mapping memory address to dram model {dramid@<start bit>;<memory address map>}
-gpgpu_mem_addr_test                    0 # run sweep test to check address mapping for aliased address
-gpgpu_mem_address_mask                    1 # 0 = old addressing mask, 1 = new addressing mask, 2 = new add. mask + flipped bank sel and chip sel bits
-gpuwattch_xml_file  gpuwattch_gtx480.xml # GPUWattch XML file
-power_simulation_enabled                    1 # Turn on power simulator (1=On, 0=Off)
-power_per_cycle_dump                    0 # Dump detailed power output each cycle
-power_trace_enabled                    0 # produce a file for the power trace (1=On, 0=Off)
-power_trace_zlevel                     6 # Compression level of the power trace output log (0=no comp, 9=highest)
-steady_power_levels_enabled                    0 # produce a file for the steady power levels (1=On, 0=Off)
-steady_state_definition                  8:4 # allowed deviation:number of samples
-gpgpu_max_cycle                        0 # terminates gpu simulation early (0 = no limit)
-gpgpu_max_insn                         0 # terminates gpu simulation early (0 = no limit)
-gpgpu_max_cta                          0 # terminates gpu simulation early (0 = no limit)
-gpgpu_runtime_stat                   500 # display runtime statistics such as dram utilization {<freq>:<flag>}
-liveness_message_freq                    1 # Minimum number of seconds between simulation liveness messages (0 = always print)
-gpgpu_flush_l1_cache                    0 # Flush L1 cache at the end of each kernel call
-gpgpu_flush_l2_cache                    0 # Flush L2 cache at the end of each kernel call
-gpgpu_deadlock_detect                    1 # Stop the simulation at deadlock (1=on (default), 0=off)
-gpgpu_ptx_instruction_classification                    0 # if enabled will classify ptx instruction types per kernel (Max 255 kernels now)
-gpgpu_ptx_sim_mode                     0 # Select between Performance (default) or Functional simulation (1)
-gpgpu_clock_domains 700.0:700.0:700.0:924.0 # Clock Domain Frequencies in MhZ {<Core Clock>:<ICNT Clock>:<L2 Clock>:<DRAM Clock>}
-gpgpu_max_concurrent_kernel                    8 # maximum kernels that can run concurrently on GPU
-gpgpu_cflog_interval                    0 # Interval between each snapshot in control flow logger
-visualizer_enabled                     0 # Turn on visualizer output (1=On, 0=Off)
-visualizer_outputfile                 NULL # Specifies the output log file for visualizer
-visualizer_zlevel                      6 # Compression level of the visualizer output log (0=no comp, 9=highest)
-trace_enabled                          0 # Turn on traces
-trace_components                    none # comma seperated list of traces to enable. Complete list found in trace_streams.tup. Default none
-trace_sampling_core                    0 # The core which is printed using CORE_DPRINTF. Default 0
-trace_sampling_memory_partition                   -1 # The memory partition which is printed using MEMPART_DPRINTF. Default -1 (i.e. all)
-enable_ptx_file_line_stats                    1 # Turn on PTX source line statistic profiling. (1 = On)
-ptx_line_stats_filename gpgpu_inst_stats.txt # Output file for PTX source line statistics.
-save_embedded_ptx                      0 # saves ptx files embedded in binary as <n>.ptx
-keep                                   0 # keep intermediate files created by GPGPU-Sim when interfacing with external programs
-gpgpu_ptx_save_converted_ptxplus                    0 # Saved converted ptxplus to a file
-ptx_opcode_latency_int         4,13,4,5,145 # Opcode latencies for integers <ADD,MAX,MUL,MAD,DIV>Default 1,1,19,25,145
-ptx_opcode_latency_fp          4,13,4,5,39 # Opcode latencies for single precision floating points <ADD,MAX,MUL,MAD,DIV>Default 1,1,1,1,30
-ptx_opcode_latency_dp         8,19,8,8,330 # Opcode latencies for double precision floating points <ADD,MAX,MUL,MAD,DIV>Default 8,8,8,8,335
-ptx_opcode_initiation_int            1,2,2,1,8 # Opcode initiation intervals for integers <ADD,MAX,MUL,MAD,DIV>Default 1,1,4,4,32
-ptx_opcode_initiation_fp            1,2,1,1,4 # Opcode initiation intervals for single precision floating points <ADD,MAX,MUL,MAD,DIV>Default 1,1,1,1,5
-ptx_opcode_initiation_dp         8,16,8,8,130 # Opcode initiation intervals for double precision floating points <ADD,MAX,MUL,MAD,DIV>Default 8,8,8,8,130
DRAM Timing Options:
nbk                                    16 # number of banks
CCD                                     2 # column to column delay
RRD                                     6 # minimal delay between activation of rows in different banks
RCD                                    12 # row to column delay
RAS                                    28 # time needed to activate row
RP                                     12 # time needed to precharge (deactivate) row
RC                                     40 # row cycle time
CDLR                                    5 # switching from write to read (changes tWTR)
WR                                     12 # last data-in to row precharge
CL                                     12 # CAS latency
WL                                      4 # Write latency
nbkgrp                                  4 # number of bank groups
CCDL                                    3 # column to column delay between accesses to different bank groups
RTPL                                    2 # read to precharge delay between accesses to different bank groups
Total number of memory sub partition = 12
addr_dec_mask[CHIP]  = 0000000000000000 	high:64 low:0
addr_dec_mask[BK]    = 000000000000e100 	high:16 low:8
addr_dec_mask[ROW]   = 000000000fff0000 	high:28 low:16
addr_dec_mask[COL]   = 0000000000001eff 	high:13 low:0
addr_dec_mask[BURST] = 000000000000003f 	high:6 low:0
sub_partition_id_mask = 0000000000000100
GPGPU-Sim uArch: clock freqs: 700000000.000000:700000000.000000:700000000.000000:924000000.000000
GPGPU-Sim uArch: clock periods: 0.00000000142857142857:0.00000000142857142857:0.00000000142857142857:0.00000000108225108225
*** Initializing Memory Statistics ***
GPGPU-Sim uArch: interconnect node map (shaderID+MemID to icntID)
GPGPU-Sim uArch: Memory nodes ID start from index: 15
GPGPU-Sim uArch:    0   1   2   3   4
GPGPU-Sim uArch:    5   6   7   8   9
GPGPU-Sim uArch:   10  11  12  13  14
GPGPU-Sim uArch:   15  16  17  18  19
GPGPU-Sim uArch:   20  21  22  23  24
GPGPU-Sim uArch:   25  26
GPGPU-Sim uArch: interconnect node reverse map (icntID to shaderID+MemID)
GPGPU-Sim uArch: Memory nodes start from ID: 15
GPGPU-Sim uArch:    0   1   2   3   4
GPGPU-Sim uArch:    5   6   7   8   9
GPGPU-Sim uArch:   10  11  12  13  14
GPGPU-Sim uArch:   15  16  17  18  19
GPGPU-Sim uArch:   20  21  22  23  24
GPGPU-Sim uArch:   25  26
59223c5836e436fa179bac05233b3051  /home/kishore/project_source/gpu_class_proj/gpgpusim-benchmarks-master/bin/release/NQU
GPGPU-Sim uArch: performance model initialization complete.
GPGPU-Sim PTX: __cudaRegisterFatBinary, fat_cubin_handle = 1, filename=nqueen.cu
self exe links to: /home/kishore/project_source/gpu_class_proj/gpgpusim-benchmarks-master/bin/release/NQU
Running md5sum using "md5sum /home/kishore/project_source/gpu_class_proj/gpgpusim-benchmarks-master/bin/release/NQU "
Running cuobjdump using "$CUDA_INSTALL_PATH/bin/cuobjdump -ptx -elf -sass /home/kishore/project_source/gpu_class_proj/gpgpusim-benchmarks-master/bin/release/NQU > _cuobjdump_complete_output_iuVwTL"
Parsing file _cuobjdump_complete_output_iuVwTL
######### cuobjdump parser ########
## Adding new section PTX
Adding ptx filename: _cuobjdump_1.ptx
Adding arch: sm_10
Adding identifier: nqueen.cu
## Adding new section ELF
Adding arch: sm_10
Adding identifier: nqueen.cu
## Adding new section PTX
Adding ptx filename: _cuobjdump_2.ptx
Adding arch: sm_20
Adding identifier: nqueen.cu
## Adding new section ELF
Adding arch: sm_20
Adding identifier: nqueen.cu
Done parsing!!!
GPGPU-Sim PTX: __cudaRegisterFunction _Z24solve_nqueen_cuda_kerneliiPjS_S_S_i : hostFun 0x0x403b20, fat_cubin_handle = 1
GPGPU-Sim PTX: allocating shared region for "__cuda___cuda_local_var_65604_39_non_const_sum44" from 0x0 to 0x180 (shared memory space)
GPGPU-Sim PTX: allocating shared region for "__cuda___cuda_local_var_65599_39_non_const_mask428" from 0x180 to 0x1080 (shared memory space)
GPGPU-Sim PTX: allocating shared region for "__cuda___cuda_local_var_65601_39_non_const_r_mask4268" from 0x1080 to 0x1f80 (shared memory space)
GPGPU-Sim PTX: allocating shared region for "__cuda___cuda_local_var_65600_39_non_const_l_mask8108" from 0x1f80 to 0x2e80 (shared memory space)
GPGPU-Sim PTX: allocating shared region for "__cuda___cuda_local_var_65602_39_non_const_m11948" from 0x2e80 to 0x3d80 (shared memory space)
GPGPU-Sim PTX: instruction assembly for function '_Z24solve_nqueen_cuda_kerneliiPjS_S_S_i'...   done.
GPGPU-Sim PTX: finding reconvergence points for '_Z24solve_nqueen_cuda_kerneliiPjS_S_S_i'...
GPGPU-Sim PTX: Finding dominators for '_Z24solve_nqueen_cuda_kerneliiPjS_S_S_i'...
GPGPU-Sim PTX: Finding immediate dominators for '_Z24solve_nqueen_cuda_kerneliiPjS_S_S_i'...
GPGPU-Sim PTX: Finding postdominators for '_Z24solve_nqueen_cuda_kerneliiPjS_S_S_i'...
GPGPU-Sim PTX: Finding immediate postdominators for '_Z24solve_nqueen_cuda_kerneliiPjS_S_S_i'...
GPGPU-Sim PTX: pre-decoding instructions for '_Z24solve_nqueen_cuda_kerneliiPjS_S_S_i'...
GPGPU-Sim PTX: reconvergence points for _Z24solve_nqueen_cuda_kerneliiPjS_S_S_i...
GPGPU-Sim PTX:  1 (potential) branch divergence @  PC=0x058 (_1.ptx:81) @%p1 bra $Lt_0_10754;
GPGPU-Sim PTX:    immediate post dominator      @  PC=0x328 (_1.ptx:198) bar.sync 0;
GPGPU-Sim PTX:  2 (potential) branch divergence @  PC=0x198 (_1.ptx:127) @%p2 bra $Lt_0_12034;
GPGPU-Sim PTX:    immediate post dominator      @  PC=0x2f0 (_1.ptx:186) mov.u32 %r37, 0;
GPGPU-Sim PTX:  3 (potential) branch divergence @  PC=0x1b0 (_1.ptx:131) bra.uni $Lt_0_12290;
GPGPU-Sim PTX:    immediate post dominator      @  PC=0x2f0 (_1.ptx:186) mov.u32 %r37, 0;
GPGPU-Sim PTX:  4 (potential) branch divergence @  PC=0x1f8 (_1.ptx:143) @%p3 bra $Lt_0_12546;
GPGPU-Sim PTX:    immediate post dominator      @  PC=0x2f0 (_1.ptx:186) mov.u32 %r37, 0;
GPGPU-Sim PTX:  5 (potential) branch divergence @  PC=0x218 (_1.ptx:147) @%p4 bra $Lt_0_13058;
GPGPU-Sim PTX:    immediate post dominator      @  PC=0x2f0 (_1.ptx:186) mov.u32 %r37, 0;
GPGPU-Sim PTX:  6 (potential) branch divergence @  PC=0x238 (_1.ptx:153) bra.uni $Lt_0_12290;
GPGPU-Sim PTX:    immediate post dominator      @  PC=0x2f0 (_1.ptx:186) mov.u32 %r37, 0;
GPGPU-Sim PTX:  7 (potential) branch divergence @  PC=0x2d8 (_1.ptx:179) bra.uni $Lt_0_12290;
GPGPU-Sim PTX:    immediate post dominator      @  PC=0x2f0 (_1.ptx:186) mov.u32 %r37, 0;
GPGPU-Sim PTX:  8 (potential) branch divergence @  PC=0x300 (_1.ptx:188) @%p5 bra $Lt_0_11522;
GPGPU-Sim PTX:    immediate post dominator      @  PC=0x308 (_1.ptx:190) st.shared.u32 [%rd4+0], %r16;
GPGPU-Sim PTX:  9 (potential) branch divergence @  PC=0x310 (_1.ptx:191) bra.uni $Lt_0_10498;
GPGPU-Sim PTX:    immediate post dominator      @  PC=0x328 (_1.ptx:198) bar.sync 0;
GPGPU-Sim PTX: 10 (potential) branch divergence @  PC=0x340 (_1.ptx:201) @!%p6 bra $Lt_0_13570;
GPGPU-Sim PTX:    immediate post dominator      @  PC=0x368 (_1.ptx:208) bar.sync 0;
GPGPU-Sim PTX: 11 (potential) branch divergence @  PC=0x370 (_1.ptx:209) @!%p6 bra $Lt_0_14082;
GPGPU-Sim PTX:    immediate post dominator      @  PC=0x398 (_1.ptx:216) bar.sync 0;
GPGPU-Sim PTX: 12 (potential) branch divergence @  PC=0x3b0 (_1.ptx:219) @%p7 bra $Lt_0_14594;
GPGPU-Sim PTX:    immediate post dominator      @  PC=0x3d8 (_1.ptx:226) bar.sync 0;
GPGPU-Sim PTX: 13 (potential) branch divergence @  PC=0x3f0 (_1.ptx:229) @%p8 bra $Lt_0_15106;
GPGPU-Sim PTX:    immediate post dominator      @  PC=0x418 (_1.ptx:236) bar.sync 0;
GPGPU-Sim PTX: 14 (potential) branch divergence @  PC=0x430 (_1.ptx:239) @%p9 bra $Lt_0_15618;
GPGPU-Sim PTX:    immediate post dominator      @  PC=0x458 (_1.ptx:246) bar.sync 0;
GPGPU-Sim PTX: 15 (potential) branch divergence @  PC=0x470 (_1.ptx:249) @%p10 bra $Lt_0_16130;
GPGPU-Sim PTX:    immediate post dominator      @  PC=0x498 (_1.ptx:256) bar.sync 0;
GPGPU-Sim PTX: 16 (potential) branch divergence @  PC=0x4b0 (_1.ptx:259) @%p11 bra $Lt_0_16642;
GPGPU-Sim PTX:    immediate post dominator      @  PC=0x4d8 (_1.ptx:266) bar.sync 0;
GPGPU-Sim PTX: 17 (potential) branch divergence @  PC=0x4f0 (_1.ptx:269) @%p12 bra $Lt_0_17154;
GPGPU-Sim PTX:    immediate post dominator      @  PC=0x528 (_1.ptx:279) exit;
GPGPU-Sim PTX: ... end of reconvergence points for _Z24solve_nqueen_cuda_kerneliiPjS_S_S_i
GPGPU-Sim PTX: ... done pre-decoding instructions for '_Z24solve_nqueen_cuda_kerneliiPjS_S_S_i'.
GPGPU-Sim PTX: finished parsing EMBEDDED .ptx file _1.ptx
Adding _cuobjdump_2.ptx with cubin handle 1
GPGPU-Sim PTX: extracting embedded .ptx to temporary file "_ptx_H0q7XW"
Running: cat _ptx_H0q7XW | sed 's/.version 1.5/.version 1.4/' | sed 's/, texmode_independent//' | sed 's/\(\.extern \.const\[1\] .b8 \w\+\)\[\]/\1\[1\]/' | sed 's/const\[.\]/const\[0\]/g' > _ptx2_KR0I27
GPGPU-Sim PTX: generating ptxinfo using "$CUDA_INSTALL_PATH/bin/ptxas --gpu-name=sm_20 -v _ptx2_KR0I27 --output-file  /dev/null 2> _ptx_H0q7XWinfo"
GPGPU-Sim PTX: Kernel '_Z24solve_nqueen_cuda_kerneliiPjS_S_S_i' : regs=15, lmem=0, smem=15744, cmem=76
GPGPU-Sim PTX: removing ptxinfo using "rm -f _ptx_H0q7XW _ptx2_KR0I27 _ptx_H0q7XWinfo"
GPGPU-Sim PTX: loading globals with explicit initializers... 
GPGPU-Sim PTX: finished loading globals (0 bytes total).
GPGPU-Sim PTX: loading constants with explicit initializers...  done.
Usage: ../bin/release/NQU [-c|-g] n steps
  -c: CPU only
  -g: GPU only
  n: n-queen
  steps: step for GPU
Default to 8 queen
CUDA initialized.
GPGPU-Sim: synchronize waiting for inactive GPU simulation
GPGPU-Sim API: Stream Manager State
GPGPU-Sim: detected inactive GPU simulation thread
CPU: 11 queen = 2680  time = 1.146000 msec
GPGPU-Sim: synchronize waiting for inactive GPU simulation
GPGPU-Sim API: Stream Manager State
GPGPU-Sim: detected inactive GPU simulation thread
256 96

GPGPU-Sim PTX: cudaLaunch for 0x0x403b20 (mode=performance simulation) on stream 0
GPGPU-Sim PTX: pushing kernel '_Z24solve_nqueen_cuda_kerneliiPjS_S_S_i' to stream 0, gridDim= (256,1,1) blockDim = (96,1,1) 
kernel '_Z24solve_nqueen_cuda_kerneliiPjS_S_S_i' transfer to GPU hardware scheduler
GPGPU-Sim uArch: Shader 1 bind to kernel 1 '_Z24solve_nqueen_cuda_kerneliiPjS_S_S_i'
GPGPU-Sim uArch: CTA/core = 3, limited by: shmem
GPGPU-Sim uArch: core:  1, cta: 0 initialized @(1,0)
GPGPU-Sim uArch: Shader 2 bind to kernel 1 '_Z24solve_nqueen_cuda_kerneliiPjS_S_S_i'
GPGPU-Sim uArch: core:  2, cta: 0 initialized @(1,0)
GPGPU-Sim uArch: Shader 3 bind to kernel 1 '_Z24solve_nqueen_cuda_kerneliiPjS_S_S_i'
GPGPU-Sim uArch: core:  3, cta: 0 initialized @(1,0)
GPGPU-Sim uArch: Shader 4 bind to kernel 1 '_Z24solve_nqueen_cuda_kerneliiPjS_S_S_i'
GPGPU-Sim uArch: core:  4, cta: 0 initialized @(1,0)
GPGPU-Sim uArch: Shader 5 bind to kernel 1 '_Z24solve_nqueen_cuda_kerneliiPjS_S_S_i'
GPGPU-Sim uArch: core:  5, cta: 0 initialized @(1,0)
GPGPU-Sim uArch: Shader 6 bind to kernel 1 '_Z24solve_nqueen_cuda_kerneliiPjS_S_S_i'
GPGPU-Sim uArch: core:  6, cta: 0 initialized @(1,0)
GPGPU-Sim uArch: Shader 7 bind to kernel 1 '_Z24solve_nqueen_cuda_kerneliiPjS_S_S_i'
GPGPU-Sim uArch: core:  7, cta: 0 initialized @(1,0)
GPGPU-Sim uArch: Shader 8 bind to kernel 1 '_Z24solve_nqueen_cuda_kerneliiPjS_S_S_i'
GPGPU-Sim uArch: core:  8, cta: 0 initialized @(1,0)
GPGPU-Sim uArch: Shader 9 bind to kernel 1 '_Z24solve_nqueen_cuda_kerneliiPjS_S_S_i'
GPGPU-Sim uArch: core:  9, cta: 0 initialized @(1,0)
GPGPU-Sim uArch: Shader 10 bind to kernel 1 '_Z24solve_nqueen_cuda_kerneliiPjS_S_S_i'
GPGPU-Sim uArch: core: 10, cta: 0 initialized @(1,0)
GPGPU-Sim uArch: Shader 11 bind to kernel 1 '_Z24solve_nqueen_cuda_kerneliiPjS_S_S_i'
GPGPU-Sim uArch: core: 11, cta: 0 initialized @(1,0)
GPGPU-Sim uArch: Shader 12 bind to kernel 1 '_Z24solve_nqueen_cuda_kerneliiPjS_S_S_i'
GPGPU-Sim uArch: core: 12, cta: 0 initialized @(1,0)
GPGPU-Sim uArch: Shader 13 bind to kernel 1 '_Z24solve_nqueen_cuda_kerneliiPjS_S_S_i'
GPGPU-Sim uArch: core: 13, cta: 0 initialized @(1,0)
GPGPU-Sim uArch: Shader 14 bind to kernel 1 '_Z24solve_nqueen_cuda_kerneliiPjS_S_S_i'
GPGPU-Sim uArch: core: 14, cta: 0 initialized @(1,0)
GPGPU-Sim uArch: Shader 0 bind to kernel 1 '_Z24solve_nqueen_cuda_kerneliiPjS_S_S_i'
GPGPU-Sim uArch: core:  0, cta: 0 initialized @(1,0)
GPGPU-Sim uArch: core:  1, cta: 1 initialized @(2,0)
GPGPU-Sim uArch: core:  2, cta: 1 initialized @(2,0)
GPGPU-Sim uArch: core:  3, cta: 1 initialized @(2,0)
GPGPU-Sim uArch: core:  4, cta: 1 initialized @(2,0)
GPGPU-Sim uArch: core:  5, cta: 1 initialized @(2,0)
GPGPU-Sim uArch: core:  6, cta: 1 initialized @(2,0)
GPGPU-Sim uArch: core:  7, cta: 1 initialized @(2,0)
GPGPU-Sim uArch: core:  8, cta: 1 initialized @(2,0)
GPGPU-Sim uArch: core:  9, cta: 1 initialized @(2,0)
GPGPU-Sim uArch: core: 10, cta: 1 initialized @(2,0)
GPGPU-Sim uArch: core: 11, cta: 1 initialized @(2,0)
GPGPU-Sim uArch: core: 12, cta: 1 initialized @(2,0)
GPGPU-Sim uArch: core: 13, cta: 1 initialized @(2,0)
GPGPU-Sim uArch: core: 14, cta: 1 initialized @(2,0)
GPGPU-Sim uArch: core:  0, cta: 1 initialized @(2,0)
GPGPU-Sim uArch: core:  1, cta: 2 initialized @(3,0)
GPGPU-Sim uArch: core:  2, cta: 2 initialized @(3,0)
GPGPU-Sim uArch: core:  3, cta: 2 initialized @(3,0)
GPGPU-Sim uArch: core:  4, cta: 2 initialized @(3,0)
GPGPU-Sim uArch: core:  5, cta: 2 initialized @(3,0)
GPGPU-Sim uArch: core:  6, cta: 2 initialized @(3,0)
GPGPU-Sim uArch: core:  7, cta: 2 initialized @(3,0)
GPGPU-Sim uArch: core:  8, cta: 2 initialized @(3,0)
GPGPU-Sim uArch: core:  9, cta: 2 initialized @(3,0)
GPGPU-Sim uArch: core: 10, cta: 2 initialized @(3,0)
GPGPU-Sim uArch: core: 11, cta: 2 initialized @(3,0)
GPGPU-Sim uArch: core: 12, cta: 2 initialized @(3,0)
GPGPU-Sim uArch: core: 13, cta: 2 initialized @(3,0)
GPGPU-Sim uArch: core: 14, cta: 2 initialized @(3,0)
GPGPU-Sim uArch: core:  0, cta: 2 initialized @(3,0)
GPGPU-Sim uArch: cycles simulated: 500  inst.: 38880 (ipc=77.8) sim_rate=38880 (inst/sec) elapsed = 0:0:00:01 / Wed May 13 10:17:08 2015
GPGPU-Sim PTX: 100000 instructions simulated : ctaid=(30,0,0) tid=(81,0,0)
GPGPU-Sim uArch: cycles simulated: 1500  inst.: 131084 (ipc=87.4) sim_rate=65542 (inst/sec) elapsed = 0:0:00:02 / Wed May 13 10:17:09 2015
GPGPU-Sim PTX: 200000 instructions simulated : ctaid=(24,0,0) tid=(22,0,0)
GPGPU-Sim uArch: Shader 1 finished CTA #1 (2483,0), 2 CTAs running
GPGPU-Sim uArch: core:  1, cta: 1 initialized @(2484,0)
GPGPU-Sim uArch: cycles simulated: 2500  inst.: 206458 (ipc=82.6) sim_rate=68819 (inst/sec) elapsed = 0:0:00:03 / Wed May 13 10:17:10 2015
GPGPU-Sim uArch: Shader 0 finished CTA #0 (2500,0), 2 CTAs running
GPGPU-Sim uArch: core:  0, cta: 0 initialized @(2501,0)
GPGPU-Sim uArch: Shader 5 finished CTA #0 (2502,0), 2 CTAs running
GPGPU-Sim uArch: core:  5, cta: 0 initialized @(2503,0)
GPGPU-Sim uArch: Shader 1 finished CTA #2 (2504,0), 2 CTAs running
GPGPU-Sim uArch: core:  1, cta: 2 initialized @(2505,0)
GPGPU-Sim uArch: Shader 0 finished CTA #1 (2507,0), 2 CTAs running
GPGPU-Sim uArch: core:  0, cta: 1 initialized @(2508,0)
GPGPU-Sim uArch: Shader 3 finished CTA #0 (2508,0), 2 CTAs running
GPGPU-Sim uArch: core:  3, cta: 0 initialized @(2509,0)
GPGPU-Sim uArch: Shader 4 finished CTA #0 (2510,0), 2 CTAs running
GPGPU-Sim uArch: core:  4, cta: 0 initialized @(2511,0)
GPGPU-Sim uArch: Shader 5 finished CTA #1 (2512,0), 2 CTAs running
GPGPU-Sim uArch: core:  5, cta: 1 initialized @(2513,0)
GPGPU-Sim uArch: Shader 4 finished CTA #1 (2514,0), 2 CTAs running
GPGPU-Sim uArch: core:  4, cta: 1 initialized @(2515,0)
GPGPU-Sim uArch: Shader 2 finished CTA #0 (2516,0), 2 CTAs running
GPGPU-Sim uArch: core:  2, cta: 0 initialized @(2517,0)
GPGPU-Sim uArch: Shader 3 finished CTA #1 (2518,0), 2 CTAs running
GPGPU-Sim uArch: core:  3, cta: 1 initialized @(2519,0)
GPGPU-Sim uArch: Shader 6 finished CTA #0 (2520,0), 2 CTAs running
GPGPU-Sim uArch: core:  6, cta: 0 initialized @(2521,0)
GPGPU-Sim uArch: Shader 7 finished CTA #0 (2522,0), 2 CTAs running
GPGPU-Sim uArch: core:  7, cta: 0 initialized @(2523,0)
GPGPU-Sim uArch: Shader 8 finished CTA #0 (2524,0), 2 CTAs running
GPGPU-Sim uArch: core:  8, cta: 0 initialized @(2525,0)
GPGPU-Sim uArch: Shader 2 finished CTA #1 (2526,0), 2 CTAs running
GPGPU-Sim uArch: core:  2, cta: 1 initialized @(2527,0)
GPGPU-Sim uArch: Shader 6 finished CTA #1 (2529,0), 2 CTAs running
GPGPU-Sim uArch: core:  6, cta: 1 initialized @(2530,0)
GPGPU-Sim uArch: Shader 7 finished CTA #1 (2531,0), 2 CTAs running
GPGPU-Sim uArch: core:  7, cta: 1 initialized @(2532,0)
GPGPU-Sim uArch: Shader 8 finished CTA #1 (2533,0), 2 CTAs running
GPGPU-Sim uArch: core:  8, cta: 1 initialized @(2534,0)
GPGPU-Sim uArch: Shader 9 finished CTA #0 (2534,0), 2 CTAs running
GPGPU-Sim uArch: core:  9, cta: 0 initialized @(2535,0)
GPGPU-Sim uArch: Shader 10 finished CTA #0 (2536,0), 2 CTAs running
GPGPU-Sim uArch: core: 10, cta: 0 initialized @(2537,0)
GPGPU-Sim uArch: Shader 11 finished CTA #0 (2538,0), 2 CTAs running
GPGPU-Sim uArch: core: 11, cta: 0 initialized @(2539,0)
GPGPU-Sim uArch: Shader 12 finished CTA #0 (2540,0), 2 CTAs running
GPGPU-Sim uArch: core: 12, cta: 0 initialized @(2541,0)
GPGPU-Sim uArch: Shader 13 finished CTA #0 (2542,0), 2 CTAs running
GPGPU-Sim uArch: core: 13, cta: 0 initialized @(2543,0)
GPGPU-Sim uArch: Shader 2 finished CTA #2 (2544,0), 2 CTAs running
GPGPU-Sim uArch: core:  2, cta: 2 initialized @(2545,0)
GPGPU-Sim uArch: Shader 4 finished CTA #2 (2608,0), 2 CTAs running
GPGPU-Sim uArch: core:  4, cta: 2 initialized @(2609,0)
GPGPU-Sim uArch: Shader 6 finished CTA #2 (2624,0), 2 CTAs running
GPGPU-Sim uArch: core:  6, cta: 2 initialized @(2625,0)
GPGPU-Sim uArch: Shader 7 finished CTA #2 (2626,0), 2 CTAs running
GPGPU-Sim uArch: core:  7, cta: 2 initialized @(2627,0)
GPGPU-Sim uArch: Shader 8 finished CTA #2 (2628,0), 2 CTAs running
GPGPU-Sim uArch: core:  8, cta: 2 initialized @(2629,0)
GPGPU-Sim uArch: Shader 0 finished CTA #2 (2630,0), 2 CTAs running
GPGPU-Sim uArch: core:  0, cta: 2 initialized @(2631,0)
GPGPU-Sim uArch: Shader 9 finished CTA #1 (2632,0), 2 CTAs running
GPGPU-Sim uArch: core:  9, cta: 1 initialized @(2633,0)
GPGPU-Sim uArch: Shader 10 finished CTA #1 (2634,0), 2 CTAs running
GPGPU-Sim uArch: core: 10, cta: 1 initialized @(2635,0)
GPGPU-Sim uArch: Shader 5 finished CTA #2 (2636,0), 2 CTAs running
GPGPU-Sim uArch: core:  5, cta: 2 initialized @(2637,0)
GPGPU-Sim uArch: Shader 11 finished CTA #1 (2638,0), 2 CTAs running
GPGPU-Sim uArch: core: 11, cta: 1 initialized @(2639,0)
GPGPU-Sim uArch: Shader 12 finished CTA #1 (2640,0), 2 CTAs running
GPGPU-Sim uArch: core: 12, cta: 1 initialized @(2641,0)
GPGPU-Sim uArch: Shader 3 finished CTA #2 (2642,0), 2 CTAs running
GPGPU-Sim uArch: core:  3, cta: 2 initialized @(2643,0)
GPGPU-Sim uArch: Shader 13 finished CTA #1 (2644,0), 2 CTAs running
GPGPU-Sim uArch: core: 13, cta: 1 initialized @(2645,0)
GPGPU-Sim uArch: Shader 14 finished CTA #0 (2646,0), 2 CTAs running
GPGPU-Sim uArch: core: 14, cta: 0 initialized @(2647,0)
GPGPU-Sim uArch: Shader 9 finished CTA #2 (2648,0), 2 CTAs running
GPGPU-Sim uArch: core:  9, cta: 2 initialized @(2649,0)
GPGPU-Sim uArch: Shader 10 finished CTA #2 (2650,0), 2 CTAs running
GPGPU-Sim uArch: core: 10, cta: 2 initialized @(2651,0)
GPGPU-Sim uArch: Shader 11 finished CTA #2 (2652,0), 2 CTAs running
GPGPU-Sim uArch: core: 11, cta: 2 initialized @(2653,0)
GPGPU-Sim uArch: Shader 12 finished CTA #2 (2654,0), 2 CTAs running
GPGPU-Sim uArch: core: 12, cta: 2 initialized @(2655,0)
GPGPU-Sim uArch: Shader 13 finished CTA #2 (2656,0), 2 CTAs running
GPGPU-Sim uArch: core: 13, cta: 2 initialized @(2657,0)
GPGPU-Sim uArch: Shader 14 finished CTA #1 (2658,0), 2 CTAs running
GPGPU-Sim uArch: core: 14, cta: 1 initialized @(2659,0)
GPGPU-Sim uArch: Shader 14 finished CTA #2 (2663,0), 2 CTAs running
GPGPU-Sim uArch: core: 14, cta: 2 initialized @(2664,0)
GPGPU-Sim PTX: 300000 instructions simulated : ctaid=(56,0,0) tid=(8,0,0)
GPGPU-Sim uArch: cycles simulated: 3000  inst.: 378613 (ipc=126.2) sim_rate=94653 (inst/sec) elapsed = 0:0:00:04 / Wed May 13 10:17:11 2015
GPGPU-Sim uArch: Shader 1 finished CTA #1 (3026,0), 2 CTAs running
GPGPU-Sim uArch: core:  1, cta: 1 initialized @(3027,0)
GPGPU-Sim uArch: Shader 0 finished CTA #0 (3030,0), 2 CTAs running
GPGPU-Sim uArch: core:  0, cta: 0 initialized @(3031,0)
GPGPU-Sim uArch: Shader 5 finished CTA #0 (3039,0), 2 CTAs running
GPGPU-Sim uArch: core:  5, cta: 0 initialized @(3040,0)
GPGPU-Sim uArch: Shader 3 finished CTA #0 (3042,0), 2 CTAs running
GPGPU-Sim uArch: core:  3, cta: 0 initialized @(3043,0)
GPGPU-Sim uArch: Shader 4 finished CTA #0 (3045,0), 2 CTAs running
GPGPU-Sim uArch: core:  4, cta: 0 initialized @(3046,0)
GPGPU-Sim uArch: Shader 2 finished CTA #0 (3048,0), 2 CTAs running
GPGPU-Sim uArch: core:  2, cta: 0 initialized @(3049,0)
GPGPU-Sim PTX: 400000 instructions simulated : ctaid=(93,0,0) tid=(3,0,0)
GPGPU-Sim uArch: Shader 6 finished CTA #0 (3053,0), 2 CTAs running
GPGPU-Sim uArch: core:  6, cta: 0 initialized @(3054,0)
GPGPU-Sim uArch: Shader 7 finished CTA #0 (3056,0), 2 CTAs running
GPGPU-Sim uArch: core:  7, cta: 0 initialized @(3057,0)
GPGPU-Sim uArch: Shader 8 finished CTA #0 (3059,0), 2 CTAs running
GPGPU-Sim uArch: core:  8, cta: 0 initialized @(3060,0)
GPGPU-Sim uArch: Shader 9 finished CTA #0 (3062,0), 2 CTAs running
GPGPU-Sim uArch: core:  9, cta: 0 initialized @(3063,0)
GPGPU-Sim uArch: Shader 5 finished CTA #1 (3117,0), 2 CTAs running
GPGPU-Sim uArch: core:  5, cta: 1 initialized @(3118,0)
GPGPU-Sim uArch: Shader 0 finished CTA #1 (3120,0), 2 CTAs running
GPGPU-Sim uArch: core:  0, cta: 1 initialized @(3121,0)
GPGPU-Sim uArch: Shader 3 finished CTA #1 (3123,0), 2 CTAs running
GPGPU-Sim uArch: core:  3, cta: 1 initialized @(3124,0)
GPGPU-Sim uArch: Shader 4 finished CTA #1 (3130,0), 2 CTAs running
GPGPU-Sim uArch: core:  4, cta: 1 initialized @(3131,0)
GPGPU-Sim uArch: Shader 6 finished CTA #1 (3134,0), 2 CTAs running
GPGPU-Sim uArch: core:  6, cta: 1 initialized @(3135,0)
GPGPU-Sim uArch: Shader 7 finished CTA #1 (3136,0), 2 CTAs running
GPGPU-Sim uArch: core:  7, cta: 1 initialized @(3137,0)
GPGPU-Sim uArch: Shader 8 finished CTA #1 (3139,0), 2 CTAs running
GPGPU-Sim uArch: core:  8, cta: 1 initialized @(3140,0)
GPGPU-Sim uArch: Shader 2 finished CTA #1 (3142,0), 2 CTAs running
GPGPU-Sim uArch: core:  2, cta: 1 initialized @(3143,0)
GPGPU-Sim uArch: Shader 1 finished CTA #2 (3146,0), 2 CTAs running
GPGPU-Sim uArch: core:  1, cta: 2 initialized @(3147,0)
GPGPU-Sim uArch: Shader 10 finished CTA #0 (3172,0), 2 CTAs running
GPGPU-Sim uArch: core: 10, cta: 0 initialized @(3173,0)
GPGPU-Sim uArch: Shader 14 finished CTA #0 (3189,0), 2 CTAs running
GPGPU-Sim uArch: core: 14, cta: 0 initialized @(3190,0)
GPGPU-Sim uArch: Shader 11 finished CTA #0 (3193,0), 2 CTAs running
GPGPU-Sim uArch: core: 11, cta: 0 initialized @(3194,0)
GPGPU-Sim uArch: Shader 12 finished CTA #0 (3195,0), 2 CTAs running
GPGPU-Sim uArch: core: 12, cta: 0 initialized @(3196,0)
GPGPU-Sim uArch: Shader 13 finished CTA #0 (3197,0), 2 CTAs running
GPGPU-Sim uArch: core: 13, cta: 0 initialized @(3198,0)
GPGPU-Sim uArch: Shader 9 finished CTA #1 (3210,0), 2 CTAs running
GPGPU-Sim uArch: core:  9, cta: 1 initialized @(3211,0)
GPGPU-Sim uArch: Shader 10 finished CTA #1 (3213,0), 2 CTAs running
GPGPU-Sim uArch: core: 10, cta: 1 initialized @(3214,0)
GPGPU-Sim uArch: Shader 11 finished CTA #1 (3216,0), 2 CTAs running
GPGPU-Sim uArch: core: 11, cta: 1 initialized @(3217,0)
GPGPU-Sim uArch: Shader 12 finished CTA #1 (3219,0), 2 CTAs running
GPGPU-Sim uArch: core: 12, cta: 1 initialized @(3220,0)
GPGPU-Sim uArch: Shader 13 finished CTA #1 (3226,0), 2 CTAs running
GPGPU-Sim uArch: core: 13, cta: 1 initialized @(3227,0)
GPGPU-Sim uArch: Shader 14 finished CTA #1 (3260,0), 2 CTAs running
GPGPU-Sim uArch: core: 14, cta: 1 initialized @(3261,0)
GPGPU-Sim uArch: Shader 4 finished CTA #2 (3300,0), 2 CTAs running
GPGPU-Sim uArch: core:  4, cta: 2 initialized @(3301,0)
GPGPU-Sim uArch: Shader 6 finished CTA #2 (3318,0), 2 CTAs running
GPGPU-Sim uArch: core:  6, cta: 2 initialized @(3319,0)
GPGPU-Sim uArch: Shader 7 finished CTA #2 (3320,0), 2 CTAs running
GPGPU-Sim uArch: core:  7, cta: 2 initialized @(3321,0)
GPGPU-Sim uArch: Shader 8 finished CTA #2 (3323,0), 2 CTAs running
GPGPU-Sim uArch: core:  8, cta: 2 initialized @(3324,0)
GPGPU-Sim uArch: Shader 0 finished CTA #2 (3326,0), 2 CTAs running
GPGPU-Sim uArch: core:  0, cta: 2 initialized @(3327,0)
GPGPU-Sim uArch: Shader 2 finished CTA #2 (3329,0), 2 CTAs running
GPGPU-Sim uArch: core:  2, cta: 2 initialized @(3330,0)
GPGPU-Sim PTX: 500000 instructions simulated : ctaid=(111,0,0) tid=(35,0,0)
GPGPU-Sim uArch: Shader 5 finished CTA #2 (3341,0), 2 CTAs running
GPGPU-Sim uArch: core:  5, cta: 2 initialized @(3342,0)
GPGPU-Sim uArch: Shader 3 finished CTA #2 (3345,0), 2 CTAs running
GPGPU-Sim uArch: core:  3, cta: 2 initialized @(3346,0)
GPGPU-Sim uArch: Shader 11 finished CTA #2 (3359,0), 2 CTAs running
GPGPU-Sim uArch: core: 11, cta: 2 initialized @(3360,0)
GPGPU-Sim uArch: Shader 12 finished CTA #2 (3362,0), 2 CTAs running
GPGPU-Sim uArch: core: 12, cta: 2 initialized @(3363,0)
GPGPU-Sim uArch: Shader 9 finished CTA #2 (3371,0), 2 CTAs running
GPGPU-Sim uArch: core:  9, cta: 2 initialized @(3372,0)
GPGPU-Sim uArch: Shader 10 finished CTA #2 (3374,0), 2 CTAs running
GPGPU-Sim uArch: core: 10, cta: 2 initialized @(3375,0)
GPGPU-Sim uArch: Shader 13 finished CTA #2 (3377,0), 2 CTAs running
GPGPU-Sim uArch: core: 13, cta: 2 initialized @(3378,0)
GPGPU-Sim uArch: Shader 14 finished CTA #2 (3451,0), 2 CTAs running
GPGPU-Sim uArch: core: 14, cta: 2 initialized @(3452,0)
GPGPU-Sim uArch: cycles simulated: 3500  inst.: 545956 (ipc=156.0) sim_rate=109191 (inst/sec) elapsed = 0:0:00:05 / Wed May 13 10:17:12 2015
GPGPU-Sim uArch: Shader 1 finished CTA #1 (3575,0), 2 CTAs running
GPGPU-Sim uArch: core:  1, cta: 1 initialized @(3576,0)
GPGPU-Sim uArch: Shader 0 finished CTA #0 (3589,0), 2 CTAs running
GPGPU-Sim uArch: core:  0, cta: 0 initialized @(3590,0)
GPGPU-Sim uArch: Shader 3 finished CTA #0 (3598,0), 2 CTAs running
GPGPU-Sim uArch: core:  3, cta: 0 initialized @(3599,0)
GPGPU-Sim uArch: Shader 5 finished CTA #0 (3603,0), 2 CTAs running
GPGPU-Sim uArch: core:  5, cta: 0 initialized @(3604,0)
GPGPU-Sim uArch: Shader 4 finished CTA #0 (3604,0), 2 CTAs running
GPGPU-Sim uArch: core:  4, cta: 0 initialized @(3605,0)
GPGPU-Sim uArch: Shader 6 finished CTA #0 (3608,0), 2 CTAs running
GPGPU-Sim uArch: core:  6, cta: 0 initialized @(3609,0)
GPGPU-Sim uArch: Shader 2 finished CTA #0 (3617,0), 2 CTAs running
GPGPU-Sim uArch: core:  2, cta: 0 initialized @(3618,0)
GPGPU-Sim PTX: 600000 instructions simulated : ctaid=(125,0,0) tid=(11,0,0)
GPGPU-Sim uArch: Shader 7 finished CTA #0 (3717,0), 2 CTAs running
GPGPU-Sim uArch: core:  7, cta: 0 initialized @(3718,0)
GPGPU-Sim uArch: Shader 11 finished CTA #0 (3736,0), 2 CTAs running
GPGPU-Sim uArch: core: 11, cta: 0 initialized @(3737,0)
GPGPU-Sim uArch: Shader 4 finished CTA #1 (3738,0), 2 CTAs running
GPGPU-Sim uArch: Shader 12 finished CTA #0 (3738,0), 2 CTAs running
GPGPU-Sim uArch: core: 12, cta: 0 initialized @(3739,0)
GPGPU-Sim uArch: core:  4, cta: 1 initialized @(3739,0)
GPGPU-Sim uArch: Shader 8 finished CTA #0 (3742,0), 2 CTAs running
GPGPU-Sim uArch: core:  8, cta: 0 initialized @(3743,0)
GPGPU-Sim uArch: Shader 0 finished CTA #1 (3744,0), 2 CTAs running
GPGPU-Sim uArch: Shader 13 finished CTA #0 (3744,0), 2 CTAs running
GPGPU-Sim uArch: core: 13, cta: 0 initialized @(3745,0)
GPGPU-Sim uArch: core:  0, cta: 1 initialized @(3745,0)
GPGPU-Sim uArch: Shader 9 finished CTA #0 (3746,0), 2 CTAs running
GPGPU-Sim uArch: core:  9, cta: 0 initialized @(3747,0)
GPGPU-Sim uArch: Shader 2 finished CTA #1 (3748,0), 2 CTAs running
GPGPU-Sim uArch: core:  2, cta: 1 initialized @(3749,0)
GPGPU-Sim uArch: Shader 6 finished CTA #1 (3750,0), 2 CTAs running
GPGPU-Sim uArch: core:  6, cta: 1 initialized @(3751,0)
GPGPU-Sim uArch: Shader 7 finished CTA #1 (3753,0), 2 CTAs running
GPGPU-Sim uArch: core:  7, cta: 1 initialized @(3754,0)
GPGPU-Sim uArch: Shader 8 finished CTA #1 (3754,0), 2 CTAs running
GPGPU-Sim uArch: core:  8, cta: 1 initialized @(3755,0)
GPGPU-Sim uArch: Shader 14 finished CTA #0 (3756,0), 2 CTAs running
GPGPU-Sim uArch: core: 14, cta: 0 initialized @(3757,0)
GPGPU-Sim uArch: Shader 3 finished CTA #1 (3758,0), 2 CTAs running
GPGPU-Sim uArch: core:  3, cta: 1 initialized @(3759,0)
GPGPU-Sim uArch: Shader 5 finished CTA #1 (3762,0), 2 CTAs running
GPGPU-Sim uArch: core:  5, cta: 1 initialized @(3763,0)
GPGPU-Sim uArch: Shader 9 finished CTA #1 (3793,0), 2 CTAs running
GPGPU-Sim uArch: core:  9, cta: 1 initialized @(3794,0)
GPGPU-Sim uArch: Shader 10 finished CTA #0 (3820,0), 2 CTAs running
GPGPU-Sim uArch: core: 10, cta: 0 initialized @(3821,0)
GPGPU-Sim uArch: Shader 13 finished CTA #1 (3822,0), 2 CTAs running
GPGPU-Sim uArch: core: 13, cta: 1 initialized @(3823,0)
GPGPU-Sim uArch: Shader 1 finished CTA #2 (3827,0), 2 CTAs running
GPGPU-Sim uArch: core:  1, cta: 2 initialized @(3828,0)
GPGPU-Sim uArch: Shader 10 finished CTA #1 (3830,0), 2 CTAs running
GPGPU-Sim uArch: core: 10, cta: 1 initialized @(3831,0)
GPGPU-Sim uArch: Shader 11 finished CTA #1 (3833,0), 2 CTAs running
GPGPU-Sim uArch: core: 11, cta: 1 initialized @(3834,0)
GPGPU-Sim uArch: Shader 12 finished CTA #1 (3836,0), 2 CTAs running
GPGPU-Sim uArch: core: 12, cta: 1 initialized @(3837,0)
GPGPU-Sim uArch: Shader 14 finished CTA #1 (3866,0), 2 CTAs running
GPGPU-Sim uArch: core: 14, cta: 1 initialized @(3867,0)
GPGPU-Sim PTX: 700000 instructions simulated : ctaid=(141,0,0) tid=(92,0,0)
GPGPU-Sim uArch: Shader 4 finished CTA #2 (3954,0), 2 CTAs running
GPGPU-Sim uArch: core:  4, cta: 2 initialized @(3955,0)
GPGPU-Sim uArch: Shader 7 finished CTA #2 (3967,0), 2 CTAs running
GPGPU-Sim uArch: core:  7, cta: 2 initialized @(3968,0)
GPGPU-Sim uArch: Shader 8 finished CTA #2 (3970,0), 2 CTAs running
GPGPU-Sim uArch: core:  8, cta: 2 initialized @(3971,0)
GPGPU-Sim uArch: Shader 0 finished CTA #2 (3973,0), 2 CTAs running
GPGPU-Sim uArch: core:  0, cta: 2 initialized @(3974,0)
GPGPU-Sim uArch: Shader 2 finished CTA #2 (3978,0), 2 CTAs running
GPGPU-Sim uArch: core:  2, cta: 2 initialized @(3979,0)
GPGPU-Sim uArch: Shader 3 finished CTA #2 (3979,0), 2 CTAs running
GPGPU-Sim uArch: core:  3, cta: 2 initialized @(3980,0)
GPGPU-Sim uArch: Shader 5 finished CTA #2 (3982,0), 2 CTAs running
GPGPU-Sim uArch: core:  5, cta: 2 initialized @(3983,0)
GPGPU-Sim uArch: Shader 6 finished CTA #2 (3986,0), 2 CTAs running
GPGPU-Sim uArch: core:  6, cta: 2 initialized @(3987,0)
GPGPU-Sim uArch: cycles simulated: 4000  inst.: 706756 (ipc=176.7) sim_rate=100965 (inst/sec) elapsed = 0:0:00:07 / Wed May 13 10:17:14 2015
GPGPU-Sim uArch: Shader 11 finished CTA #2 (4028,0), 2 CTAs running
GPGPU-Sim uArch: core: 11, cta: 2 initialized @(4029,0)
GPGPU-Sim uArch: Shader 9 finished CTA #2 (4122,0), 2 CTAs running
GPGPU-Sim uArch: core:  9, cta: 2 initialized @(4123,0)
GPGPU-Sim uArch: Shader 14 finished CTA #2 (4139,0), 2 CTAs running
GPGPU-Sim uArch: core: 14, cta: 2 initialized @(4140,0)
GPGPU-Sim uArch: Shader 12 finished CTA #2 (4142,0), 2 CTAs running
GPGPU-Sim uArch: core: 12, cta: 2 initialized @(4143,0)
GPGPU-Sim uArch: Shader 10 finished CTA #2 (4153,0), 2 CTAs running
GPGPU-Sim uArch: core: 10, cta: 2 initialized @(4154,0)
GPGPU-Sim uArch: Shader 0 finished CTA #0 (4167,0), 2 CTAs running
GPGPU-Sim uArch: core:  0, cta: 0 initialized @(4168,0)
GPGPU-Sim uArch: Shader 5 finished CTA #0 (4171,0), 2 CTAs running
GPGPU-Sim uArch: core:  5, cta: 0 initialized @(4172,0)
GPGPU-Sim uArch: Shader 3 finished CTA #0 (4175,0), 2 CTAs running
GPGPU-Sim uArch: core:  3, cta: 0 initialized @(4176,0)
GPGPU-Sim uArch: Shader 4 finished CTA #0 (4176,0), 2 CTAs running
GPGPU-Sim uArch: core:  4, cta: 0 initialized @(4177,0)
GPGPU-Sim uArch: Shader 13 finished CTA #2 (4179,0), 2 CTAs running
GPGPU-Sim uArch: core: 13, cta: 2 initialized @(4180,0)
GPGPU-Sim uArch: Shader 1 finished CTA #1 (4183,0), 2 CTAs running
GPGPU-Sim uArch: core:  1, cta: 1 initialized @(4184,0)
GPGPU-Sim uArch: Shader 6 finished CTA #0 (4192,0), 2 CTAs running
GPGPU-Sim uArch: core:  6, cta: 0 initialized @(4193,0)
GPGPU-Sim uArch: Shader 2 finished CTA #0 (4197,0), 2 CTAs running
GPGPU-Sim uArch: core:  2, cta: 0 initialized @(4198,0)
GPGPU-Sim PTX: 800000 instructions simulated : ctaid=(181,0,0) tid=(4,0,0)
GPGPU-Sim uArch: Shader 7 finished CTA #0 (4279,0), 2 CTAs running
GPGPU-Sim uArch: core:  7, cta: 0 initialized @(4280,0)
GPGPU-Sim uArch: Shader 8 finished CTA #0 (4286,0), 2 CTAs running
GPGPU-Sim uArch: core:  8, cta: 0 initialized @(4287,0)
GPGPU-Sim uArch: Shader 11 finished CTA #0 (4292,0), 2 CTAs running
GPGPU-Sim uArch: core: 11, cta: 0 initialized @(4293,0)
GPGPU-Sim uArch: Shader 12 finished CTA #0 (4295,0), 2 CTAs running
GPGPU-Sim uArch: core: 12, cta: 0 initialized @(4296,0)
GPGPU-Sim uArch: Shader 9 finished CTA #0 (4302,0), 2 CTAs running
GPGPU-Sim uArch: core:  9, cta: 0 initialized @(4303,0)
GPGPU-Sim uArch: Shader 13 finished CTA #0 (4308,0), 2 CTAs running
GPGPU-Sim uArch: core: 13, cta: 0 initialized @(4309,0)
GPGPU-Sim uArch: Shader 14 finished CTA #0 (4326,0), 2 CTAs running
GPGPU-Sim uArch: core: 14, cta: 0 initialized @(4327,0)
GPGPU-Sim uArch: Shader 4 finished CTA #1 (4351,0), 2 CTAs running
GPGPU-Sim uArch: core:  4, cta: 1 initialized @(4352,0)
GPGPU-Sim uArch: Shader 2 finished CTA #1 (4354,0), 2 CTAs running
GPGPU-Sim uArch: core:  2, cta: 1 initialized @(4355,0)
GPGPU-Sim uArch: Shader 6 finished CTA #1 (4357,0), 2 CTAs running
GPGPU-Sim uArch: core:  6, cta: 1 initialized @(4358,0)
GPGPU-Sim uArch: Shader 0 finished CTA #1 (4360,0), 2 CTAs running
GPGPU-Sim uArch: core:  0, cta: 1 initialized @(4361,0)
GPGPU-Sim uArch: Shader 3 finished CTA #1 (4363,0), 2 CTAs running
GPGPU-Sim uArch: core:  3, cta: 1 initialized @(4364,0)
GPGPU-Sim uArch: Shader 10 finished CTA #0 (4366,0), 2 CTAs running
GPGPU-Sim uArch: core: 10, cta: 0 initialized @(4367,0)
GPGPU-Sim uArch: Shader 5 finished CTA #1 (4370,0), 2 CTAs running
GPGPU-Sim uArch: core:  5, cta: 1 initialized @(4371,0)
GPGPU-Sim uArch: Shader 7 finished CTA #1 (4377,0), 2 CTAs running
GPGPU-Sim uArch: core:  7, cta: 1 initialized @(4378,0)
GPGPU-Sim uArch: Shader 8 finished CTA #1 (4405,0), 2 CTAs running
GPGPU-Sim uArch: core:  8, cta: 1 initialized @(4406,0)
GPGPU-Sim uArch: Shader 9 finished CTA #1 (4416,0), 2 CTAs running
GPGPU-Sim uArch: core:  9, cta: 1 initialized @(4417,0)
GPGPU-Sim uArch: Shader 13 finished CTA #1 (4456,0), 2 CTAs running
GPGPU-Sim uArch: core: 13, cta: 1 initialized @(4457,0)
GPGPU-Sim uArch: Shader 1 finished CTA #2 (4463,0), 2 CTAs running
GPGPU-Sim uArch: core:  1, cta: 2 initialized @(4464,0)
GPGPU-Sim uArch: Shader 10 finished CTA #1 (4481,0), 2 CTAs running
GPGPU-Sim uArch: core: 10, cta: 1 initialized @(4482,0)
GPGPU-Sim uArch: cycles simulated: 4500  inst.: 874635 (ipc=194.4) sim_rate=109329 (inst/sec) elapsed = 0:0:00:08 / Wed May 13 10:17:15 2015
GPGPU-Sim PTX: 900000 instructions simulated : ctaid=(202,0,0) tid=(54,0,0)
GPGPU-Sim uArch: Shader 11 finished CTA #1 (4545,0), 2 CTAs running
GPGPU-Sim uArch: core: 11, cta: 1 initialized @(4546,0)
GPGPU-Sim uArch: Shader 12 finished CTA #1 (4565,0), 2 CTAs running
GPGPU-Sim uArch: core: 12, cta: 1 initialized @(4566,0)
GPGPU-Sim uArch: Shader 5 finished CTA #2 (4570,0), 2 CTAs running
GPGPU-Sim uArch: core:  5, cta: 2 initialized @(4571,0)
GPGPU-Sim uArch: Shader 4 finished CTA #2 (4580,0), 2 CTAs running
GPGPU-Sim uArch: core:  4, cta: 2 initialized @(4581,0)
GPGPU-Sim uArch: Shader 14 finished CTA #1 (4582,0), 2 CTAs running
GPGPU-Sim uArch: core: 14, cta: 1 initialized @(4583,0)
GPGPU-Sim uArch: Shader 3 finished CTA #2 (4584,0), 2 CTAs running
GPGPU-Sim uArch: core:  3, cta: 2 initialized @(4585,0)
GPGPU-Sim uArch: Shader 6 finished CTA #2 (4586,0), 2 CTAs running
GPGPU-Sim uArch: core:  6, cta: 2 initialized @(4587,0)
GPGPU-Sim uArch: Shader 0 finished CTA #2 (4589,0), 2 CTAs running
GPGPU-Sim uArch: core:  0, cta: 2 initialized @(4590,0)
GPGPU-Sim uArch: Shader 2 finished CTA #2 (4592,0), 2 CTAs running
GPGPU-Sim uArch: core:  2, cta: 2 initialized @(4593,0)
GPGPU-Sim uArch: Shader 7 finished CTA #2 (4630,0), 2 CTAs running
GPGPU-Sim uArch: core:  7, cta: 2 initialized @(4631,0)
GPGPU-Sim uArch: Shader 8 finished CTA #2 (4634,0), 2 CTAs running
GPGPU-Sim uArch: core:  8, cta: 2 initialized @(4635,0)
GPGPU-Sim uArch: Shader 11 finished CTA #2 (4665,0), 2 CTAs running
GPGPU-Sim uArch: core: 11, cta: 2 initialized @(4666,0)
GPGPU-Sim uArch: Shader 9 finished CTA #2 (4704,0), 2 CTAs running
GPGPU-Sim uArch: core:  9, cta: 2 initialized @(4705,0)
GPGPU-Sim uArch: Shader 12 finished CTA #2 (4705,0), 2 CTAs running
GPGPU-Sim uArch: core: 12, cta: 2 initialized @(4706,0)
GPGPU-Sim uArch: Shader 14 finished CTA #2 (4730,0), 2 CTAs running
GPGPU-Sim uArch: core: 14, cta: 2 initialized @(4731,0)
GPGPU-Sim uArch: Shader 13 finished CTA #2 (4738,0), 2 CTAs running
GPGPU-Sim uArch: core: 13, cta: 2 initialized @(4739,0)
GPGPU-Sim uArch: Shader 10 finished CTA #2 (4744,0), 2 CTAs running
GPGPU-Sim uArch: core: 10, cta: 2 initialized @(4745,0)
GPGPU-Sim uArch: Shader 4 finished CTA #0 (4767,0), 2 CTAs running
GPGPU-Sim uArch: core:  4, cta: 0 initialized @(4768,0)
GPGPU-Sim uArch: Shader 5 finished CTA #0 (4770,0), 2 CTAs running
GPGPU-Sim uArch: core:  5, cta: 0 initialized @(4771,0)
GPGPU-Sim uArch: Shader 6 finished CTA #0 (4773,0), 2 CTAs running
GPGPU-Sim uArch: core:  6, cta: 0 initialized @(4774,0)
GPGPU-Sim uArch: Shader 0 finished CTA #0 (4776,0), 2 CTAs running
GPGPU-Sim uArch: core:  0, cta: 0 initialized @(4777,0)
GPGPU-Sim uArch: Shader 2 finished CTA #0 (4779,0), 2 CTAs running
GPGPU-Sim uArch: core:  2, cta: 0 initialized @(4780,0)
GPGPU-Sim uArch: Shader 3 finished CTA #0 (4782,0), 2 CTAs running
GPGPU-Sim uArch: core:  3, cta: 0 initialized @(4783,0)
GPGPU-Sim PTX: 1000000 instructions simulated : ctaid=(210,0,0) tid=(45,0,0)
GPGPU-Sim uArch: Shader 1 finished CTA #1 (4837,0), 2 CTAs running
GPGPU-Sim uArch: core:  1, cta: 1 initialized @(4838,0)
GPGPU-Sim uArch: Shader 7 finished CTA #0 (4847,0), 2 CTAs running
GPGPU-Sim uArch: core:  7, cta: 0 initialized @(4848,0)
GPGPU-Sim uArch: Shader 8 finished CTA #0 (4859,0), 2 CTAs running
GPGPU-Sim uArch: core:  8, cta: 0 initialized @(4860,0)
GPGPU-Sim uArch: Shader 11 finished CTA #0 (4864,0), 2 CTAs running
GPGPU-Sim uArch: core: 11, cta: 0 initialized @(4865,0)
GPGPU-Sim uArch: Shader 12 finished CTA #0 (4866,0), 2 CTAs running
GPGPU-Sim uArch: core: 12, cta: 0 initialized @(4867,0)
GPGPU-Sim uArch: Shader 13 finished CTA #0 (4885,0), 2 CTAs running
GPGPU-Sim uArch: core: 13, cta: 0 initialized @(4886,0)
GPGPU-Sim uArch: Shader 9 finished CTA #0 (4888,0), 2 CTAs running
GPGPU-Sim uArch: core:  9, cta: 0 initialized @(4889,0)
GPGPU-Sim uArch: Shader 14 finished CTA #0 (4899,0), 2 CTAs running
GPGPU-Sim uArch: core: 14, cta: 0 initialized @(4900,0)
GPGPU-Sim uArch: Shader 4 finished CTA #1 (4957,0), 2 CTAs running
GPGPU-Sim uArch: core:  4, cta: 1 initialized @(4958,0)
GPGPU-Sim uArch: cycles simulated: 5000  inst.: 1041603 (ipc=208.3) sim_rate=115733 (inst/sec) elapsed = 0:0:00:09 / Wed May 13 10:17:16 2015
GPGPU-Sim uArch: Shader 10 finished CTA #0 (5043,0), 2 CTAs running
GPGPU-Sim uArch: core: 10, cta: 0 initialized @(5044,0)
GPGPU-Sim uArch: Shader 0 finished CTA #1 (5059,0), 2 CTAs running
GPGPU-Sim uArch: core:  0, cta: 1 initialized @(5060,0)
GPGPU-Sim uArch: Shader 5 finished CTA #1 (5061,0), 2 CTAs running
GPGPU-Sim uArch: core:  5, cta: 1 initialized @(5062,0)
GPGPU-Sim uArch: Shader 7 finished CTA #1 (5063,0), 2 CTAs running
GPGPU-Sim uArch: core:  7, cta: 1 initialized @(5064,0)
GPGPU-Sim uArch: Shader 8 finished CTA #1 (5066,0), 2 CTAs running
GPGPU-Sim uArch: core:  8, cta: 1 initialized @(5067,0)
GPGPU-Sim uArch: Shader 9 finished CTA #1 (5067,0), 2 CTAs running
GPGPU-Sim uArch: core:  9, cta: 1 initialized @(5068,0)
GPGPU-Sim uArch: Shader 2 finished CTA #1 (5069,0), 2 CTAs running
GPGPU-Sim uArch: core:  2, cta: 1 initialized @(5070,0)
GPGPU-Sim uArch: Shader 6 finished CTA #1 (5071,0), 2 CTAs running
GPGPU-Sim uArch: core:  6, cta: 1 initialized @(5072,0)
GPGPU-Sim uArch: Shader 3 finished CTA #1 (5073,0), 2 CTAs running
GPGPU-Sim uArch: core:  3, cta: 1 initialized @(5074,0)
GPGPU-Sim uArch: Shader 1 finished CTA #2 (5100,0), 2 CTAs running
GPGPU-Sim uArch: core:  1, cta: 2 initialized @(5101,0)
GPGPU-Sim uArch: Shader 13 finished CTA #1 (5107,0), 2 CTAs running
GPGPU-Sim uArch: core: 13, cta: 1 initialized @(5108,0)
GPGPU-Sim PTX: 1100000 instructions simulated : ctaid=(231,0,0) tid=(26,0,0)
GPGPU-Sim uArch: Shader 11 finished CTA #1 (5117,0), 2 CTAs running
GPGPU-Sim uArch: core: 11, cta: 1 initialized @(5118,0)
GPGPU-Sim uArch: Shader 10 finished CTA #1 (5122,0), 2 CTAs running
GPGPU-Sim uArch: core: 10, cta: 1 initialized @(5123,0)
GPGPU-Sim uArch: Shader 12 finished CTA #1 (5124,0), 2 CTAs running
GPGPU-Sim uArch: core: 12, cta: 1 initialized @(5125,0)
GPGPU-Sim uArch: Shader 14 finished CTA #1 (5154,0), 2 CTAs running
GPGPU-Sim uArch: core: 14, cta: 1 initialized @(5155,0)
GPGPU-Sim uArch: Shader 0 finished CTA #2 (5164,0), 2 CTAs running
GPGPU-Sim uArch: core:  0, cta: 2 initialized @(5165,0)
GPGPU-Sim uArch: Shader 4 finished CTA #2 (5174,0), 2 CTAs running
GPGPU-Sim uArch: core:  4, cta: 2 initialized @(5175,0)
GPGPU-Sim uArch: Shader 2 finished CTA #2 (5178,0), 2 CTAs running
GPGPU-Sim uArch: core:  2, cta: 2 initialized @(5179,0)
GPGPU-Sim uArch: Shader 6 finished CTA #2 (5181,0), 2 CTAs running
GPGPU-Sim uArch: core:  6, cta: 2 initialized @(5182,0)
GPGPU-Sim uArch: Shader 3 finished CTA #2 (5185,0), 2 CTAs running
GPGPU-Sim uArch: core:  3, cta: 2 initialized @(5186,0)
GPGPU-Sim uArch: Shader 5 finished CTA #2 (5187,0), 2 CTAs running
GPGPU-Sim uArch: Shader 8 finished CTA #2 (5243,0), 2 CTAs running
GPGPU-Sim uArch: Shader 7 finished CTA #2 (5251,0), 2 CTAs running
GPGPU-Sim uArch: Shader 11 finished CTA #2 (5265,0), 2 CTAs running
GPGPU-Sim uArch: Shader 12 finished CTA #2 (5288,0), 2 CTAs running
GPGPU-Sim uArch: Shader 9 finished CTA #2 (5302,0), 2 CTAs running
GPGPU-Sim uArch: Shader 13 finished CTA #2 (5306,0), 2 CTAs running
GPGPU-Sim uArch: Shader 14 finished CTA #2 (5318,0), 2 CTAs running
GPGPU-Sim uArch: Shader 10 finished CTA #2 (5348,0), 2 CTAs running
GPGPU-Sim uArch: Shader 4 finished CTA #0 (5355,0), 2 CTAs running
GPGPU-Sim uArch: Shader 6 finished CTA #0 (5368,0), 2 CTAs running
GPGPU-Sim uArch: Shader 5 finished CTA #0 (5377,0), 1 CTAs running
GPGPU-Sim PTX: 1200000 instructions simulated : ctaid=(246,0,0) tid=(65,0,0)
GPGPU-Sim uArch: Shader 2 finished CTA #0 (5478,0), 2 CTAs running
GPGPU-Sim uArch: Shader 8 finished CTA #0 (5494,0), 1 CTAs running
GPGPU-Sim uArch: Shader 1 finished CTA #1 (5498,0), 2 CTAs running
GPGPU-Sim uArch: Shader 9 finished CTA #0 (5498,0), 1 CTAs running
GPGPU-Sim uArch: cycles simulated: 5500  inst.: 1181496 (ipc=214.8) sim_rate=118149 (inst/sec) elapsed = 0:0:00:10 / Wed May 13 10:17:17 2015
GPGPU-Sim uArch: Shader 3 finished CTA #0 (5500,0), 2 CTAs running
GPGPU-Sim uArch: Shader 13 finished CTA #0 (5502,0), 1 CTAs running
GPGPU-Sim uArch: Shader 11 finished CTA #0 (5504,0), 1 CTAs running
GPGPU-Sim uArch: Shader 0 finished CTA #0 (5506,0), 2 CTAs running
GPGPU-Sim uArch: Shader 12 finished CTA #0 (5508,0), 1 CTAs running
GPGPU-Sim uArch: Shader 7 finished CTA #0 (5515,0), 1 CTAs running
GPGPU-Sim uArch: Shader 14 finished CTA #0 (5536,0), 1 CTAs running
GPGPU-Sim uArch: Shader 4 finished CTA #1 (5578,0), 1 CTAs running
GPGPU-Sim uArch: Shader 10 finished CTA #0 (5599,0), 1 CTAs running
GPGPU-Sim uArch: Shader 0 finished CTA #1 (5618,0), 1 CTAs running
GPGPU-Sim uArch: Shader 5 finished CTA #1 (5621,0), 0 CTAs running
GPGPU-Sim uArch: Shader 5 empty (release kernel 1 '_Z24solve_nqueen_cuda_kerneliiPjS_S_S_i').
GPGPU-Sim uArch: Shader 6 finished CTA #1 (5624,0), 1 CTAs running
GPGPU-Sim uArch: Shader 2 finished CTA #1 (5627,0), 1 CTAs running
GPGPU-Sim uArch: Shader 3 finished CTA #1 (5636,0), 1 CTAs running
GPGPU-Sim uArch: Shader 8 finished CTA #1 (5652,0), 0 CTAs running
GPGPU-Sim uArch: Shader 8 empty (release kernel 1 '_Z24solve_nqueen_cuda_kerneliiPjS_S_S_i').
GPGPU-Sim uArch: Shader 7 finished CTA #1 (5655,0), 0 CTAs running
GPGPU-Sim uArch: Shader 7 empty (release kernel 1 '_Z24solve_nqueen_cuda_kerneliiPjS_S_S_i').
GPGPU-Sim uArch: Shader 11 finished CTA #1 (5679,0), 0 CTAs running
GPGPU-Sim uArch: Shader 11 empty (release kernel 1 '_Z24solve_nqueen_cuda_kerneliiPjS_S_S_i').
GPGPU-Sim uArch: Shader 9 finished CTA #1 (5682,0), 0 CTAs running
GPGPU-Sim uArch: Shader 9 empty (release kernel 1 '_Z24solve_nqueen_cuda_kerneliiPjS_S_S_i').
GPGPU-Sim uArch: Shader 12 finished CTA #1 (5690,0), 0 CTAs running
GPGPU-Sim uArch: Shader 12 empty (release kernel 1 '_Z24solve_nqueen_cuda_kerneliiPjS_S_S_i').
GPGPU-Sim uArch: Shader 13 finished CTA #1 (5701,0), 0 CTAs running
GPGPU-Sim uArch: Shader 13 empty (release kernel 1 '_Z24solve_nqueen_cuda_kerneliiPjS_S_S_i').
GPGPU-Sim uArch: Shader 14 finished CTA #1 (5722,0), 0 CTAs running
GPGPU-Sim uArch: Shader 14 empty (release kernel 1 '_Z24solve_nqueen_cuda_kerneliiPjS_S_S_i').
GPGPU-Sim uArch: Shader 10 finished CTA #1 (5742,0), 0 CTAs running
GPGPU-Sim uArch: Shader 10 empty (release kernel 1 '_Z24solve_nqueen_cuda_kerneliiPjS_S_S_i').
GPGPU-Sim uArch: Shader 4 finished CTA #2 (5760,0), 0 CTAs running
GPGPU-Sim uArch: Shader 4 empty (release kernel 1 '_Z24solve_nqueen_cuda_kerneliiPjS_S_S_i').
GPGPU-Sim uArch: Shader 0 finished CTA #2 (5763,0), 0 CTAs running
GPGPU-Sim uArch: Shader 0 empty (release kernel 1 '_Z24solve_nqueen_cuda_kerneliiPjS_S_S_i').
GPGPU-Sim uArch: Shader 1 finished CTA #2 (5766,0), 1 CTAs running
GPGPU-Sim uArch: Shader 6 finished CTA #2 (5769,0), 0 CTAs running
GPGPU-Sim uArch: Shader 6 empty (release kernel 1 '_Z24solve_nqueen_cuda_kerneliiPjS_S_S_i').
GPGPU-Sim uArch: Shader 2 finished CTA #2 (5772,0), 0 CTAs running
GPGPU-Sim uArch: Shader 2 empty (release kernel 1 '_Z24solve_nqueen_cuda_kerneliiPjS_S_S_i').
GPGPU-Sim uArch: Shader 3 finished CTA #2 (5781,0), 0 CTAs running
GPGPU-Sim uArch: Shader 3 empty (release kernel 1 '_Z24solve_nqueen_cuda_kerneliiPjS_S_S_i').
GPGPU-Sim uArch: cycles simulated: 6500  inst.: 1196118 (ipc=184.0) sim_rate=108738 (inst/sec) elapsed = 0:0:00:11 / Wed May 13 10:17:18 2015
GPGPU-Sim uArch: cycles simulated: 11000  inst.: 1213415 (ipc=110.3) sim_rate=101117 (inst/sec) elapsed = 0:0:00:12 / Wed May 13 10:17:19 2015
GPGPU-Sim uArch: cycles simulated: 15000  inst.: 1229102 (ipc=81.9) sim_rate=94546 (inst/sec) elapsed = 0:0:00:13 / Wed May 13 10:17:20 2015
GPGPU-Sim uArch: cycles simulated: 19000  inst.: 1244317 (ipc=65.5) sim_rate=88879 (inst/sec) elapsed = 0:0:00:14 / Wed May 13 10:17:21 2015
GPGPU-Sim uArch: cycles simulated: 23500  inst.: 1261890 (ipc=53.7) sim_rate=84126 (inst/sec) elapsed = 0:0:00:15 / Wed May 13 10:17:22 2015
GPGPU-Sim PTX: 1300000 instructions simulated : ctaid=(0,0,0) tid=(26,0,0)
GPGPU-Sim uArch: cycles simulated: 27500  inst.: 1277481 (ipc=46.5) sim_rate=79842 (inst/sec) elapsed = 0:0:00:16 / Wed May 13 10:17:23 2015
GPGPU-Sim uArch: cycles simulated: 31500  inst.: 1292683 (ipc=41.0) sim_rate=76040 (inst/sec) elapsed = 0:0:00:17 / Wed May 13 10:17:24 2015
GPGPU-Sim uArch: cycles simulated: 35500  inst.: 1308297 (ipc=36.9) sim_rate=72683 (inst/sec) elapsed = 0:0:00:18 / Wed May 13 10:17:25 2015
GPGPU-Sim uArch: cycles simulated: 40000  inst.: 1325633 (ipc=33.1) sim_rate=69770 (inst/sec) elapsed = 0:0:00:19 / Wed May 13 10:17:26 2015
GPGPU-Sim uArch: cycles simulated: 44000  inst.: 1340899 (ipc=30.5) sim_rate=67044 (inst/sec) elapsed = 0:0:00:20 / Wed May 13 10:17:27 2015
GPGPU-Sim uArch: cycles simulated: 48000  inst.: 1356629 (ipc=28.3) sim_rate=64601 (inst/sec) elapsed = 0:0:00:21 / Wed May 13 10:17:28 2015
GPGPU-Sim PTX: 1400000 instructions simulated : ctaid=(0,0,0) tid=(34,0,0)
GPGPU-Sim uArch: cycles simulated: 52000  inst.: 1372064 (ipc=26.4) sim_rate=62366 (inst/sec) elapsed = 0:0:00:22 / Wed May 13 10:17:29 2015
GPGPU-Sim uArch: cycles simulated: 56000  inst.: 1387622 (ipc=24.8) sim_rate=60331 (inst/sec) elapsed = 0:0:00:23 / Wed May 13 10:17:30 2015
GPGPU-Sim uArch: cycles simulated: 60000  inst.: 1402885 (ipc=23.4) sim_rate=58453 (inst/sec) elapsed = 0:0:00:24 / Wed May 13 10:17:31 2015
GPGPU-Sim uArch: cycles simulated: 64000  inst.: 1418505 (ipc=22.2) sim_rate=56740 (inst/sec) elapsed = 0:0:00:25 / Wed May 13 10:17:32 2015
GPGPU-Sim uArch: cycles simulated: 68500  inst.: 1435657 (ipc=21.0) sim_rate=55217 (inst/sec) elapsed = 0:0:00:26 / Wed May 13 10:17:33 2015
GPGPU-Sim uArch: cycles simulated: 72500  inst.: 1451331 (ipc=20.0) sim_rate=53753 (inst/sec) elapsed = 0:0:00:27 / Wed May 13 10:17:34 2015
GPGPU-Sim PTX: 1500000 instructions simulated : ctaid=(0,0,0) tid=(14,0,0)
GPGPU-Sim uArch: cycles simulated: 76500  inst.: 1466849 (ipc=19.2) sim_rate=52387 (inst/sec) elapsed = 0:0:00:28 / Wed May 13 10:17:35 2015
GPGPU-Sim uArch: cycles simulated: 81000  inst.: 1484035 (ipc=18.3) sim_rate=51173 (inst/sec) elapsed = 0:0:00:29 / Wed May 13 10:17:36 2015
GPGPU-Sim uArch: cycles simulated: 85000  inst.: 1499180 (ipc=17.6) sim_rate=49972 (inst/sec) elapsed = 0:0:00:30 / Wed May 13 10:17:37 2015
GPGPU-Sim uArch: cycles simulated: 89000  inst.: 1514655 (ipc=17.0) sim_rate=48859 (inst/sec) elapsed = 0:0:00:31 / Wed May 13 10:17:38 2015
GPGPU-Sim uArch: cycles simulated: 93000  inst.: 1530253 (ipc=16.5) sim_rate=47820 (inst/sec) elapsed = 0:0:00:32 / Wed May 13 10:17:39 2015
GPGPU-Sim uArch: cycles simulated: 97500  inst.: 1547768 (ipc=15.9) sim_rate=46902 (inst/sec) elapsed = 0:0:00:33 / Wed May 13 10:17:40 2015
GPGPU-Sim PTX: 1600000 instructions simulated : ctaid=(0,0,0) tid=(20,0,0)
GPGPU-Sim uArch: cycles simulated: 101500  inst.: 1562875 (ipc=15.4) sim_rate=45966 (inst/sec) elapsed = 0:0:00:34 / Wed May 13 10:17:41 2015
GPGPU-Sim uArch: cycles simulated: 105000  inst.: 1576778 (ipc=15.0) sim_rate=45050 (inst/sec) elapsed = 0:0:00:35 / Wed May 13 10:17:42 2015
GPGPU-Sim uArch: cycles simulated: 108000  inst.: 1588250 (ipc=14.7) sim_rate=44118 (inst/sec) elapsed = 0:0:00:36 / Wed May 13 10:17:43 2015
GPGPU-Sim uArch: cycles simulated: 111500  inst.: 1601626 (ipc=14.4) sim_rate=43287 (inst/sec) elapsed = 0:0:00:37 / Wed May 13 10:17:44 2015
GPGPU-Sim uArch: cycles simulated: 115500  inst.: 1616945 (ipc=14.0) sim_rate=42551 (inst/sec) elapsed = 0:0:00:38 / Wed May 13 10:17:45 2015
GPGPU-Sim uArch: cycles simulated: 119000  inst.: 1630435 (ipc=13.7) sim_rate=41806 (inst/sec) elapsed = 0:0:00:39 / Wed May 13 10:17:46 2015
GPGPU-Sim uArch: cycles simulated: 122500  inst.: 1644075 (ipc=13.4) sim_rate=41101 (inst/sec) elapsed = 0:0:00:40 / Wed May 13 10:17:47 2015
GPGPU-Sim PTX: 1700000 instructions simulated : ctaid=(0,0,0) tid=(2,0,0)
GPGPU-Sim uArch: cycles simulated: 126000  inst.: 1657969 (ipc=13.2) sim_rate=40438 (inst/sec) elapsed = 0:0:00:41 / Wed May 13 10:17:48 2015
GPGPU-Sim uArch: cycles simulated: 128500  inst.: 1667239 (ipc=13.0) sim_rate=39696 (inst/sec) elapsed = 0:0:00:42 / Wed May 13 10:17:49 2015
GPGPU-Sim uArch: cycles simulated: 132500  inst.: 1682884 (ipc=12.7) sim_rate=39136 (inst/sec) elapsed = 0:0:00:43 / Wed May 13 10:17:50 2015
GPGPU-Sim uArch: cycles simulated: 136000  inst.: 1696402 (ipc=12.5) sim_rate=38554 (inst/sec) elapsed = 0:0:00:44 / Wed May 13 10:17:51 2015
GPGPU-Sim uArch: cycles simulated: 139500  inst.: 1709365 (ipc=12.3) sim_rate=37985 (inst/sec) elapsed = 0:0:00:45 / Wed May 13 10:17:52 2015
GPGPU-Sim uArch: cycles simulated: 142500  inst.: 1721360 (ipc=12.1) sim_rate=37420 (inst/sec) elapsed = 0:0:00:46 / Wed May 13 10:17:53 2015
GPGPU-Sim uArch: cycles simulated: 146000  inst.: 1734835 (ipc=11.9) sim_rate=36911 (inst/sec) elapsed = 0:0:00:47 / Wed May 13 10:17:54 2015
GPGPU-Sim uArch: cycles simulated: 150000  inst.: 1750257 (ipc=11.7) sim_rate=36463 (inst/sec) elapsed = 0:0:00:48 / Wed May 13 10:17:55 2015
GPGPU-Sim PTX: 1800000 instructions simulated : ctaid=(0,0,0) tid=(16,0,0)
GPGPU-Sim uArch: cycles simulated: 153500  inst.: 1763902 (ipc=11.5) sim_rate=35998 (inst/sec) elapsed = 0:0:00:49 / Wed May 13 10:17:56 2015
GPGPU-Sim uArch: cycles simulated: 157500  inst.: 1779324 (ipc=11.3) sim_rate=35586 (inst/sec) elapsed = 0:0:00:50 / Wed May 13 10:17:57 2015
GPGPU-Sim uArch: cycles simulated: 160500  inst.: 1790868 (ipc=11.2) sim_rate=35115 (inst/sec) elapsed = 0:0:00:51 / Wed May 13 10:17:58 2015
GPGPU-Sim uArch: cycles simulated: 164000  inst.: 1804244 (ipc=11.0) sim_rate=34697 (inst/sec) elapsed = 0:0:00:52 / Wed May 13 10:17:59 2015
GPGPU-Sim uArch: cycles simulated: 168000  inst.: 1819844 (ipc=10.8) sim_rate=34336 (inst/sec) elapsed = 0:0:00:53 / Wed May 13 10:18:00 2015
GPGPU-Sim uArch: cycles simulated: 171500  inst.: 1833043 (ipc=10.7) sim_rate=33945 (inst/sec) elapsed = 0:0:00:54 / Wed May 13 10:18:01 2015
GPGPU-Sim uArch: cycles simulated: 175000  inst.: 1846544 (ipc=10.6) sim_rate=33573 (inst/sec) elapsed = 0:0:00:55 / Wed May 13 10:18:02 2015
GPGPU-Sim PTX: 1900000 instructions simulated : ctaid=(0,0,0) tid=(20,0,0)
GPGPU-Sim uArch: cycles simulated: 179000  inst.: 1862001 (ipc=10.4) sim_rate=33250 (inst/sec) elapsed = 0:0:00:56 / Wed May 13 10:18:03 2015
GPGPU-Sim uArch: cycles simulated: 182500  inst.: 1875541 (ipc=10.3) sim_rate=32904 (inst/sec) elapsed = 0:0:00:57 / Wed May 13 10:18:04 2015
GPGPU-Sim uArch: cycles simulated: 186000  inst.: 1888914 (ipc=10.2) sim_rate=32567 (inst/sec) elapsed = 0:0:00:58 / Wed May 13 10:18:05 2015
GPGPU-Sim uArch: cycles simulated: 189500  inst.: 1902441 (ipc=10.0) sim_rate=32244 (inst/sec) elapsed = 0:0:00:59 / Wed May 13 10:18:06 2015
GPGPU-Sim uArch: cycles simulated: 192500  inst.: 1914241 (ipc= 9.9) sim_rate=31904 (inst/sec) elapsed = 0:0:01:00 / Wed May 13 10:18:07 2015
GPGPU-Sim uArch: cycles simulated: 196000  inst.: 1928046 (ipc= 9.8) sim_rate=31607 (inst/sec) elapsed = 0:0:01:01 / Wed May 13 10:18:08 2015
GPGPU-Sim uArch: cycles simulated: 199500  inst.: 1941096 (ipc= 9.7) sim_rate=31308 (inst/sec) elapsed = 0:0:01:02 / Wed May 13 10:18:09 2015
GPGPU-Sim PTX: 2000000 instructions simulated : ctaid=(0,0,0) tid=(39,0,0)
GPGPU-Sim uArch: cycles simulated: 202500  inst.: 1952665 (ipc= 9.6) sim_rate=30994 (inst/sec) elapsed = 0:0:01:03 / Wed May 13 10:18:10 2015
GPGPU-Sim uArch: cycles simulated: 206000  inst.: 1966176 (ipc= 9.5) sim_rate=30721 (inst/sec) elapsed = 0:0:01:04 / Wed May 13 10:18:11 2015
GPGPU-Sim uArch: cycles simulated: 209500  inst.: 1979308 (ipc= 9.4) sim_rate=30450 (inst/sec) elapsed = 0:0:01:05 / Wed May 13 10:18:12 2015
GPGPU-Sim uArch: cycles simulated: 213000  inst.: 1992851 (ipc= 9.4) sim_rate=30194 (inst/sec) elapsed = 0:0:01:06 / Wed May 13 10:18:13 2015
GPGPU-Sim uArch: cycles simulated: 216500  inst.: 2006437 (ipc= 9.3) sim_rate=29946 (inst/sec) elapsed = 0:0:01:07 / Wed May 13 10:18:14 2015
GPGPU-Sim uArch: cycles simulated: 219000  inst.: 2016104 (ipc= 9.2) sim_rate=29648 (inst/sec) elapsed = 0:0:01:08 / Wed May 13 10:18:15 2015
GPGPU-Sim uArch: cycles simulated: 222500  inst.: 2030060 (ipc= 9.1) sim_rate=29421 (inst/sec) elapsed = 0:0:01:09 / Wed May 13 10:18:16 2015
GPGPU-Sim PTX: 2100000 instructions simulated : ctaid=(0,0,0) tid=(18,0,0)
GPGPU-Sim uArch: cycles simulated: 226000  inst.: 2043610 (ipc= 9.0) sim_rate=29194 (inst/sec) elapsed = 0:0:01:10 / Wed May 13 10:18:17 2015
GPGPU-Sim uArch: cycles simulated: 229500  inst.: 2057183 (ipc= 9.0) sim_rate=28974 (inst/sec) elapsed = 0:0:01:11 / Wed May 13 10:18:18 2015
GPGPU-Sim uArch: cycles simulated: 233000  inst.: 2070576 (ipc= 8.9) sim_rate=28758 (inst/sec) elapsed = 0:0:01:12 / Wed May 13 10:18:19 2015
GPGPU-Sim uArch: cycles simulated: 236500  inst.: 2084408 (ipc= 8.8) sim_rate=28553 (inst/sec) elapsed = 0:0:01:13 / Wed May 13 10:18:20 2015
GPGPU-Sim uArch: cycles simulated: 240500  inst.: 2099635 (ipc= 8.7) sim_rate=28373 (inst/sec) elapsed = 0:0:01:14 / Wed May 13 10:18:21 2015
GPGPU-Sim uArch: cycles simulated: 244000  inst.: 2113330 (ipc= 8.7) sim_rate=28177 (inst/sec) elapsed = 0:0:01:15 / Wed May 13 10:18:22 2015
GPGPU-Sim uArch: cycles simulated: 247500  inst.: 2126479 (ipc= 8.6) sim_rate=27979 (inst/sec) elapsed = 0:0:01:16 / Wed May 13 10:18:23 2015
GPGPU-Sim PTX: 2200000 instructions simulated : ctaid=(0,0,0) tid=(28,0,0)
GPGPU-Sim uArch: cycles simulated: 251500  inst.: 2141999 (ipc= 8.5) sim_rate=27818 (inst/sec) elapsed = 0:0:01:17 / Wed May 13 10:18:24 2015
GPGPU-Sim uArch: cycles simulated: 255000  inst.: 2155533 (ipc= 8.5) sim_rate=27635 (inst/sec) elapsed = 0:0:01:18 / Wed May 13 10:18:25 2015
GPGPU-Sim uArch: cycles simulated: 258500  inst.: 2168872 (ipc= 8.4) sim_rate=27454 (inst/sec) elapsed = 0:0:01:19 / Wed May 13 10:18:26 2015
GPGPU-Sim uArch: cycles simulated: 262500  inst.: 2184381 (ipc= 8.3) sim_rate=27304 (inst/sec) elapsed = 0:0:01:20 / Wed May 13 10:18:27 2015
GPGPU-Sim uArch: cycles simulated: 266000  inst.: 2197861 (ipc= 8.3) sim_rate=27134 (inst/sec) elapsed = 0:0:01:21 / Wed May 13 10:18:28 2015
GPGPU-Sim uArch: cycles simulated: 269500  inst.: 2211482 (ipc= 8.2) sim_rate=26969 (inst/sec) elapsed = 0:0:01:22 / Wed May 13 10:18:29 2015
GPGPU-Sim uArch: cycles simulated: 273000  inst.: 2224699 (ipc= 8.1) sim_rate=26803 (inst/sec) elapsed = 0:0:01:23 / Wed May 13 10:18:30 2015
GPGPU-Sim PTX: 2300000 instructions simulated : ctaid=(0,0,0) tid=(22,0,0)
GPGPU-Sim uArch: cycles simulated: 277000  inst.: 2239853 (ipc= 8.1) sim_rate=26664 (inst/sec) elapsed = 0:0:01:24 / Wed May 13 10:18:31 2015
GPGPU-Sim uArch: cycles simulated: 280500  inst.: 2253835 (ipc= 8.0) sim_rate=26515 (inst/sec) elapsed = 0:0:01:25 / Wed May 13 10:18:32 2015
GPGPU-Sim uArch: cycles simulated: 284000  inst.: 2267402 (ipc= 8.0) sim_rate=26365 (inst/sec) elapsed = 0:0:01:26 / Wed May 13 10:18:33 2015
GPGPU-Sim uArch: cycles simulated: 288000  inst.: 2283005 (ipc= 7.9) sim_rate=26241 (inst/sec) elapsed = 0:0:01:27 / Wed May 13 10:18:34 2015
GPGPU-Sim uArch: cycles simulated: 291500  inst.: 2296315 (ipc= 7.9) sim_rate=26094 (inst/sec) elapsed = 0:0:01:28 / Wed May 13 10:18:35 2015
GPGPU-Sim uArch: cycles simulated: 295000  inst.: 2309798 (ipc= 7.8) sim_rate=25952 (inst/sec) elapsed = 0:0:01:29 / Wed May 13 10:18:36 2015
GPGPU-Sim uArch: cycles simulated: 299000  inst.: 2324885 (ipc= 7.8) sim_rate=25832 (inst/sec) elapsed = 0:0:01:30 / Wed May 13 10:18:37 2015
GPGPU-Sim PTX: 2400000 instructions simulated : ctaid=(0,0,0) tid=(18,0,0)
GPGPU-Sim uArch: cycles simulated: 302500  inst.: 2338315 (ipc= 7.7) sim_rate=25695 (inst/sec) elapsed = 0:0:01:31 / Wed May 13 10:18:38 2015
GPGPU-Sim uArch: cycles simulated: 306000  inst.: 2352285 (ipc= 7.7) sim_rate=25568 (inst/sec) elapsed = 0:0:01:32 / Wed May 13 10:18:39 2015
GPGPU-Sim uArch: cycles simulated: 310000  inst.: 2367536 (ipc= 7.6) sim_rate=25457 (inst/sec) elapsed = 0:0:01:33 / Wed May 13 10:18:40 2015
GPGPU-Sim uArch: cycles simulated: 313500  inst.: 2381130 (ipc= 7.6) sim_rate=25331 (inst/sec) elapsed = 0:0:01:34 / Wed May 13 10:18:41 2015
GPGPU-Sim uArch: cycles simulated: 317000  inst.: 2394870 (ipc= 7.6) sim_rate=25209 (inst/sec) elapsed = 0:0:01:35 / Wed May 13 10:18:42 2015
GPGPU-Sim uArch: cycles simulated: 321000  inst.: 2410128 (ipc= 7.5) sim_rate=25105 (inst/sec) elapsed = 0:0:01:36 / Wed May 13 10:18:43 2015
GPGPU-Sim uArch: cycles simulated: 324500  inst.: 2423795 (ipc= 7.5) sim_rate=24987 (inst/sec) elapsed = 0:0:01:37 / Wed May 13 10:18:44 2015
GPGPU-Sim PTX: 2500000 instructions simulated : ctaid=(0,0,0) tid=(40,0,0)
GPGPU-Sim uArch: cycles simulated: 328000  inst.: 2437216 (ipc= 7.4) sim_rate=24869 (inst/sec) elapsed = 0:0:01:38 / Wed May 13 10:18:45 2015
GPGPU-Sim uArch: cycles simulated: 332000  inst.: 2452990 (ipc= 7.4) sim_rate=24777 (inst/sec) elapsed = 0:0:01:39 / Wed May 13 10:18:46 2015
GPGPU-Sim uArch: cycles simulated: 335500  inst.: 2466525 (ipc= 7.4) sim_rate=24665 (inst/sec) elapsed = 0:0:01:40 / Wed May 13 10:18:47 2015
GPGPU-Sim uArch: cycles simulated: 339500  inst.: 2481391 (ipc= 7.3) sim_rate=24568 (inst/sec) elapsed = 0:0:01:41 / Wed May 13 10:18:48 2015
GPGPU-Sim uArch: cycles simulated: 343000  inst.: 2495192 (ipc= 7.3) sim_rate=24462 (inst/sec) elapsed = 0:0:01:42 / Wed May 13 10:18:49 2015
GPGPU-Sim uArch: cycles simulated: 346500  inst.: 2508600 (ipc= 7.2) sim_rate=24355 (inst/sec) elapsed = 0:0:01:43 / Wed May 13 10:18:50 2015
GPGPU-Sim uArch: cycles simulated: 350000  inst.: 2521901 (ipc= 7.2) sim_rate=24249 (inst/sec) elapsed = 0:0:01:44 / Wed May 13 10:18:51 2015
GPGPU-Sim PTX: 2600000 instructions simulated : ctaid=(0,0,0) tid=(0,0,0)
GPGPU-Sim uArch: cycles simulated: 354000  inst.: 2537314 (ipc= 7.2) sim_rate=24164 (inst/sec) elapsed = 0:0:01:45 / Wed May 13 10:18:52 2015
GPGPU-Sim uArch: cycles simulated: 357500  inst.: 2550904 (ipc= 7.1) sim_rate=24065 (inst/sec) elapsed = 0:0:01:46 / Wed May 13 10:18:53 2015
GPGPU-Sim uArch: cycles simulated: 361000  inst.: 2564840 (ipc= 7.1) sim_rate=23970 (inst/sec) elapsed = 0:0:01:47 / Wed May 13 10:18:54 2015
GPGPU-Sim uArch: cycles simulated: 365000  inst.: 2579932 (ipc= 7.1) sim_rate=23888 (inst/sec) elapsed = 0:0:01:48 / Wed May 13 10:18:55 2015
GPGPU-Sim uArch: cycles simulated: 368500  inst.: 2593100 (ipc= 7.0) sim_rate=23789 (inst/sec) elapsed = 0:0:01:49 / Wed May 13 10:18:56 2015
GPGPU-Sim uArch: cycles simulated: 372000  inst.: 2606630 (ipc= 7.0) sim_rate=23696 (inst/sec) elapsed = 0:0:01:50 / Wed May 13 10:18:57 2015
GPGPU-Sim PTX: 2700000 instructions simulated : ctaid=(0,0,0) tid=(2,0,0)
GPGPU-Sim uArch: cycles simulated: 376000  inst.: 2621931 (ipc= 7.0) sim_rate=23621 (inst/sec) elapsed = 0:0:01:51 / Wed May 13 10:18:58 2015
GPGPU-Sim uArch: cycles simulated: 379500  inst.: 2636147 (ipc= 6.9) sim_rate=23537 (inst/sec) elapsed = 0:0:01:52 / Wed May 13 10:18:59 2015
GPGPU-Sim uArch: cycles simulated: 383500  inst.: 2651385 (ipc= 6.9) sim_rate=23463 (inst/sec) elapsed = 0:0:01:53 / Wed May 13 10:19:00 2015
GPGPU-Sim uArch: cycles simulated: 387000  inst.: 2664786 (ipc= 6.9) sim_rate=23375 (inst/sec) elapsed = 0:0:01:54 / Wed May 13 10:19:01 2015
GPGPU-Sim uArch: cycles simulated: 390500  inst.: 2677955 (ipc= 6.9) sim_rate=23286 (inst/sec) elapsed = 0:0:01:55 / Wed May 13 10:19:02 2015
GPGPU-Sim uArch: cycles simulated: 394000  inst.: 2691974 (ipc= 6.8) sim_rate=23206 (inst/sec) elapsed = 0:0:01:56 / Wed May 13 10:19:03 2015
GPGPU-Sim uArch: cycles simulated: 398000  inst.: 2707312 (ipc= 6.8) sim_rate=23139 (inst/sec) elapsed = 0:0:01:57 / Wed May 13 10:19:04 2015
GPGPU-Sim PTX: 2800000 instructions simulated : ctaid=(0,0,0) tid=(1,0,0)
GPGPU-Sim uArch: cycles simulated: 401500  inst.: 2721017 (ipc= 6.8) sim_rate=23059 (inst/sec) elapsed = 0:0:01:58 / Wed May 13 10:19:05 2015
GPGPU-Sim uArch: cycles simulated: 405000  inst.: 2734679 (ipc= 6.8) sim_rate=22980 (inst/sec) elapsed = 0:0:01:59 / Wed May 13 10:19:06 2015
GPGPU-Sim uArch: cycles simulated: 409000  inst.: 2750002 (ipc= 6.7) sim_rate=22916 (inst/sec) elapsed = 0:0:02:00 / Wed May 13 10:19:07 2015
GPGPU-Sim uArch: cycles simulated: 412500  inst.: 2763608 (ipc= 6.7) sim_rate=22839 (inst/sec) elapsed = 0:0:02:01 / Wed May 13 10:19:08 2015
GPGPU-Sim uArch: cycles simulated: 416000  inst.: 2776686 (ipc= 6.7) sim_rate=22759 (inst/sec) elapsed = 0:0:02:02 / Wed May 13 10:19:09 2015
GPGPU-Sim uArch: cycles simulated: 420000  inst.: 2792601 (ipc= 6.6) sim_rate=22704 (inst/sec) elapsed = 0:0:02:03 / Wed May 13 10:19:10 2015
GPGPU-Sim uArch: cycles simulated: 423500  inst.: 2805924 (ipc= 6.6) sim_rate=22628 (inst/sec) elapsed = 0:0:02:04 / Wed May 13 10:19:11 2015
GPGPU-Sim PTX: 2900000 instructions simulated : ctaid=(0,0,0) tid=(10,0,0)
GPGPU-Sim uArch: cycles simulated: 427000  inst.: 2819443 (ipc= 6.6) sim_rate=22555 (inst/sec) elapsed = 0:0:02:05 / Wed May 13 10:19:12 2015
GPGPU-Sim uArch: cycles simulated: 431000  inst.: 2834788 (ipc= 6.6) sim_rate=22498 (inst/sec) elapsed = 0:0:02:06 / Wed May 13 10:19:13 2015
GPGPU-Sim uArch: cycles simulated: 434500  inst.: 2848122 (ipc= 6.6) sim_rate=22426 (inst/sec) elapsed = 0:0:02:07 / Wed May 13 10:19:14 2015
GPGPU-Sim uArch: cycles simulated: 438000  inst.: 2861638 (ipc= 6.5) sim_rate=22356 (inst/sec) elapsed = 0:0:02:08 / Wed May 13 10:19:15 2015
GPGPU-Sim uArch: cycles simulated: 442000  inst.: 2876962 (ipc= 6.5) sim_rate=22302 (inst/sec) elapsed = 0:0:02:09 / Wed May 13 10:19:16 2015
GPGPU-Sim uArch: cycles simulated: 445500  inst.: 2890609 (ipc= 6.5) sim_rate=22235 (inst/sec) elapsed = 0:0:02:10 / Wed May 13 10:19:17 2015
GPGPU-Sim uArch: cycles simulated: 449000  inst.: 2904351 (ipc= 6.5) sim_rate=22170 (inst/sec) elapsed = 0:0:02:11 / Wed May 13 10:19:18 2015
GPGPU-Sim PTX: 3000000 instructions simulated : ctaid=(0,0,0) tid=(1,0,0)
GPGPU-Sim uArch: cycles simulated: 453000  inst.: 2919853 (ipc= 6.4) sim_rate=22120 (inst/sec) elapsed = 0:0:02:12 / Wed May 13 10:19:19 2015
GPGPU-Sim uArch: cycles simulated: 456500  inst.: 2933179 (ipc= 6.4) sim_rate=22053 (inst/sec) elapsed = 0:0:02:13 / Wed May 13 10:19:20 2015
GPGPU-Sim uArch: cycles simulated: 460000  inst.: 2946773 (ipc= 6.4) sim_rate=21990 (inst/sec) elapsed = 0:0:02:14 / Wed May 13 10:19:21 2015
GPGPU-Sim uArch: cycles simulated: 464000  inst.: 2962094 (ipc= 6.4) sim_rate=21941 (inst/sec) elapsed = 0:0:02:15 / Wed May 13 10:19:22 2015
GPGPU-Sim uArch: cycles simulated: 467500  inst.: 2975568 (ipc= 6.4) sim_rate=21879 (inst/sec) elapsed = 0:0:02:16 / Wed May 13 10:19:23 2015
GPGPU-Sim uArch: cycles simulated: 471500  inst.: 2990989 (ipc= 6.3) sim_rate=21832 (inst/sec) elapsed = 0:0:02:17 / Wed May 13 10:19:24 2015
GPGPU-Sim uArch: cycles simulated: 475000  inst.: 3004810 (ipc= 6.3) sim_rate=21773 (inst/sec) elapsed = 0:0:02:18 / Wed May 13 10:19:25 2015
GPGPU-Sim PTX: 3100000 instructions simulated : ctaid=(0,0,0) tid=(30,0,0)
GPGPU-Sim uArch: cycles simulated: 478500  inst.: 3018048 (ipc= 6.3) sim_rate=21712 (inst/sec) elapsed = 0:0:02:19 / Wed May 13 10:19:26 2015
GPGPU-Sim uArch: cycles simulated: 482000  inst.: 3031929 (ipc= 6.3) sim_rate=21656 (inst/sec) elapsed = 0:0:02:20 / Wed May 13 10:19:27 2015
GPGPU-Sim uArch: cycles simulated: 486000  inst.: 3047287 (ipc= 6.3) sim_rate=21611 (inst/sec) elapsed = 0:0:02:21 / Wed May 13 10:19:28 2015
[...]
gpgpu_stall_shd_mem[l_mem_ld][mshr_rc] = 0
gpgpu_stall_shd_mem[l_mem_ld][icnt_rc] = 0
gpgpu_stall_shd_mem[l_mem_ld][wb_icnt_rc] = 0
gpgpu_stall_shd_mem[l_mem_ld][wb_rsrv_fail] = 0
gpgpu_stall_shd_mem[l_mem_st][mshr_rc] = 0
gpgpu_stall_shd_mem[l_mem_st][icnt_rc] = 0
gpgpu_stall_shd_mem[l_mem_ld][wb_icnt_rc] = 0
gpgpu_stall_shd_mem[l_mem_ld][wb_rsrv_fail] = 0
gpu_reg_bank_conflict_stalls = 0
Warp Occupancy Distribution:
Stall:1	W0_Idle:177269	W0_Scoreboard:1727888	W1:58343	W2:49239	W3:57113	W4:73868	W5:66801	W6:41149	W7:18141	W8:47111	W9:40299	W10:6147	W11:7205	W12:10051	W13:11265	W14:14310	W15:15910	W16:17569	W17:13601	W18:11656	W19:10144	W20:5919	W21:3097	W22:2843	W23:1751	W24:1090	W25:352	W26:883	W27:60	W28:420	W29:320	W30:260	W31:4540	W32:97340
traffic_breakdown_coretomem[CONST_ACC_R] = 120 {8:15,}
traffic_breakdown_coretomem[GLOBAL_ACC_R] = 72 {8:9,}
traffic_breakdown_coretomem[GLOBAL_ACC_W] = 20480 {40:512,}
traffic_breakdown_coretomem[INST_ACC_R] = 800 {8:100,}
traffic_breakdown_memtocore[CONST_ACC_R] = 1080 {72:15,}
traffic_breakdown_memtocore[GLOBAL_ACC_R] = 1224 {136:9,}
traffic_breakdown_memtocore[GLOBAL_ACC_W] = 4096 {8:512,}
traffic_breakdown_memtocore[INST_ACC_R] = 13600 {136:100,}
maxmrqlatency = 20 
maxdqlatency = 0 
maxmflatency = 379 
averagemflatency = 167 
max_icnt2mem_latency = 60 
max_icnt2sh_latency = 2461514 
mrq_lat_table:35 	0 	8 	10 	4 	0 	0 	0 	0 	0 	0 	0 	0 	0 	0 	0 	0 	0 	0 	0 	0 	0 	0 	0 	0 	0 	0 	0 	0 	0 	0 	0 	
dq_lat_table:0 	0 	0 	0 	0 	0 	0 	0 	0 	0 	0 	0 	0 	0 	0 	0 	0 	0 	0 	0 	0 	0 	0 	0 	0 	0 	0 	0 	0 	0 	0 	0 	
mf_lat_table:0 	0 	0 	0 	0 	0 	0 	482 	54 	0 	0 	0 	0 	0 	0 	0 	0 	0 	0 	0 	0 	0 	0 	0 	0 	0 	0 	0 	0 	0 	0 	0 	
icnt2mem_lat_table:0 	0 	0 	488 	107 	41 	0 	0 	0 	0 	0 	0 	0 	0 	0 	0 	0 	0 	0 	0 	0 	0 	0 	0 	
icnt2sh_lat_table:0 	0 	0 	11 	13 	0 	0 	0 	0 	0 	0 	127 	128 	0 	0 	0 	0 	0 	0 	0 	256 	1 	0 	0 	
mf_lat_pw_table:0 	0 	0 	0 	0 	0 	0 	16 	4 	0 	0 	0 	0 	0 	0 	0 	0 	0 	0 	0 	0 	0 	0 	0 	0 	0 	0 	0 	0 	0 	0 	0 	
maximum concurrent accesses to same row:
dram[0]:         1         0         0         0         0         0         0         0         0         0         0         0         0         0         0         0 
dram[1]:         0         0         0         0         0         0         0         0         0         0         0         0         0         0         0         0 
dram[2]:         0         0         0         0         0         0         0         0         0         0         0         0         0         0         0         0 
dram[3]:         0         0         0         0         0         0         0         0         0         0         0         0         0         0         0         0 
dram[4]:         0         0         0         0         0         0         0         0         0         0         0         0         0         0         0         0 
dram[5]:         0         0         0         0         0         0         0         0         0         0         0         0         0         0         0         0 
maximum service time to same row:
dram[0]:       314         0         0         0         0         0         0         0         0         0         0         0         0         0         0         0 
dram[1]:      1744         0         0         0         0         0         0         0         0         0         0         0         0         0         0         0 
dram[2]:      2432      2465         0         0         0      1168         0         0         0      1460         0         0         0      1749         0         0 
dram[3]:       829      3154         0         0         0         0         0         0         0         0         0         0         0         0         0         0 
dram[4]:      1491      4104         0         0         0         0         0         0         0         0         0         0         0         0         0         0 
dram[5]:      2166      5025         0         0         0         0         0         0         0         0         0         0         0         0         0         0 
average row accesses per activate:
dram[0]:  1.000000      -nan      -nan      -nan      -nan      -nan      -nan      -nan      -nan      -nan      -nan      -nan      -nan      -nan      -nan      -nan 
dram[1]:  2.000000      -nan      -nan      -nan      -nan      -nan      -nan      -nan      -nan      -nan      -nan      -nan      -nan      -nan      -nan      -nan 
dram[2]:  2.000000 10.000000      -nan      -nan      -nan  2.000000      -nan      -nan      -nan  2.000000      -nan      -nan      -nan  2.000000      -nan      -nan 
dram[3]:  2.000000 10.000000      -nan      -nan      -nan      -nan      -nan      -nan      -nan      -nan      -nan      -nan      -nan      -nan      -nan      -nan 
dram[4]:  2.000000  9.000000      -nan      -nan      -nan      -nan      -nan      -nan      -nan      -nan      -nan      -nan      -nan      -nan      -nan      -nan 
dram[5]:  1.000000 10.000000      -nan      -nan      -nan      -nan      -nan      -nan      -nan      -nan      -nan      -nan      -nan      -nan      -nan      -nan 
average row locality = 57/15 = 3.800000
number of total memory accesses made:
dram[0]:         0         0         0         0         0         0         0         0         0         0         0         0         0         0         0         0 
dram[1]:         0         0         0         0         0         0         0         0         0         0         0         0         0         0         0         0 
dram[2]:         0         0         0         0         0         0         0         0         0         0         0         0         0         0         0         0 
dram[3]:         0         0         0         0         0         0         0         0         0         0         0         0         0         0         0         0 
dram[4]:         0         0         0         0         0         0         0         0         0         0         0         0         0         0         0         0 
dram[5]:         0         0         0         0         0         0         0         0         0         0         0         0         0         0         0         0 
total accesses: 0
min_bank_accesses = 0!
min_chip_accesses = 0!
number of total read accesses:
dram[0]:         3         0         0         0         0         0         0         0         0         0         0         0         0         0         0         0 
dram[1]:         2         0         0         0         0         0         0         0         0         0         0         0         0         0         0         0 
dram[2]:         2         2         0         0         0         2         0         0         0         2         0         0         0         2         0         0 
dram[3]:         2         2         0         0         0         0         0         0         0         0         0         0         0         0         0         0 
dram[4]:         2         2         0         0         0         0         0         0         0         0         0         0         0         0         0         0 
dram[5]:         1         2         0         0         0         0         0         0         0         0         0         0         0         0         0         0 
total reads: 26
min_bank_accesses = 0!
chip skew: 10/2 = 5.00
number of total write accesses:
dram[0]:         0         0         0         0         0         0         0         0         0         0         0         0         0         0         0         0 
dram[1]:         0         0         0         0         0         0         0         0         0         0         0         0         0         0         0         0 
dram[2]:         0         8         0         0         0         0         0         0         0         0         0         0         0         0         0         0 
dram[3]:         0         8         0         0         0         0         0         0         0         0         0         0         0         0         0         0 
dram[4]:         0         7         0         0         0         0         0         0         0         0         0         0         0         0         0         0 
dram[5]:         0         8         0         0         0         0         0         0         0         0         0         0         0         0         0         0 
total reads: 31
min_bank_accesses = 0!
min_chip_accesses = 0!
average mf latency per bank:
dram[0]:       1300    none      none      none      none      none      none      none      none      none      none      none      none      none      none      none  
dram[1]:          0    none      none      none      none      none      none      none      none      none      none      none      none      none      none      none  
dram[2]:          0      2565    none      none      none         342    none      none      none         344    none      none      none         341    none      none  
dram[3]:          0      1944    none      none      none      none      none      none      none      none      none      none      none      none      none      none  
dram[4]:          0      2110    none      none      none      none      none      none      none      none      none      none      none      none      none      none  
dram[5]:          0      1953    none      none      none      none      none      none      none      none      none      none      none      none      none      none  
maximum mf latency per bank:
dram[0]:        278         0         0         0         0         0         0         0         0         0         0         0         0         0         0         0
dram[1]:          0         0         0         0         0         0         0         0         0         0         0         0         0         0         0         0
dram[2]:          0       379         0         0         0       273         0         0         0       269         0         0         0       269         0         0
dram[3]:          0       267         0         0         0         0         0         0         0         0         0         0         0         0         0         0
dram[4]:          0       262         0         0         0         0         0         0         0         0         0         0         0         0         0         0
dram[5]:          0       266         0         0         0         0         0         0         0         0         0         0         0         0         0         0

Number of Memory Banks Accessed per Memory Operation per Warp (from 0):
0	0	0	0	0	0	0	0	0	0	0	0	0	0	0	0	0	0	0	0	0	0	0	0	0	0	0	0	0	0	0	0	0	0	0	0	0	0	0	0	0	0	0	0	0	0	0	0	0	0	0	0	0	0	0	0	0	0	0	0	0	0	0	0	0	0	0	0	0	0	0	0	0	0	0	0	0	0	0	0	0	0	0	0	0	0	0	0	0	0	0	0	0	0	0	0	
Average # of Memory Banks Accessed per Memory Operation per Warp=-nan

position of mrq chosen
0	0	0	0	0	0	0	0	0	0	0	0	0	0	0	0	

average position of mrq chosen = -nan
Memory Partition 0: 
Cache L2_bank_000:
MSHR contents

Cache L2_bank_001:
MSHR contents

In Dram Latency Queue (total = 0): 
DRAM[0]: 16 bks, busW=4 BL=8 CL=12, tRRD=2 tCCD=6, tRCD=12 tRAS=28 tRP=12 tRC=40
n_cmd=3249198 n_nop=3249187 n_act=3 n_pre=2 n_req=3 n_rd=6 n_write=0 bw_util=3.693e-06
n_activity=144 dram_eff=0.08333
bk0: 6a 3249126i bk1: 0a 3249196i bk2: 0a 3249198i bk3: 0a 3249198i bk4: 0a 3249198i bk5: 0a 3249198i bk6: 0a 3249198i bk7: 0a 3249198i bk8: 0a 3249198i bk9: 0a 3249198i bk10: 0a 3249198i bk11: 0a 3249198i bk12: 0a 3249198i bk13: 0a 3249198i bk14: 0a 3249198i bk15: 0a 3249198i 
dram_util_bins: 0 0 0 0 0 0 0 0 0 0
dram_eff_bins: 0 0 0 0 0 0 0 0 0 0
mrqq: max=0 avg=0
Memory Partition 1: 
Cache L2_bank_002:
MSHR contents

Cache L2_bank_003:
MSHR contents

In Dram Latency Queue (total = 0): 
DRAM[1]: 16 bks, busW=4 BL=8 CL=12, tRRD=2 tCCD=6, tRCD=12 tRAS=28 tRP=12 tRC=40
n_cmd=3249198 n_nop=3249193 n_act=1 n_pre=0 n_req=2 n_rd=4 n_write=0 bw_util=2.462e-06
n_activity=55 dram_eff=0.1455
bk0: 4a 3249178i bk1: 0a 3249198i bk2: 0a 3249198i bk3: 0a 3249198i bk4: 0a 3249198i bk5: 0a 3249198i bk6: 0a 3249198i bk7: 0a 3249198i bk8: 0a 3249198i bk9: 0a 3249198i bk10: 0a 3249198i bk11: 0a 3249198i bk12: 0a 3249198i bk13: 0a 3249198i bk14: 0a 3249198i bk15: 0a 3249198i 
dram_util_bins: 0 0 0 0 0 0 0 0 0 0
dram_eff_bins: 0 0 0 0 0 0 0 0 0 0
mrqq: max=0 avg=0
Memory Partition 2: 
Cache L2_bank_004:
MSHR contents

Cache L2_bank_005:
MSHR contents

In Dram Latency Queue (total = 0): 
DRAM[2]: 16 bks, busW=4 BL=8 CL=12, tRRD=2 tCCD=6, tRCD=12 tRAS=28 tRP=12 tRC=40
n_cmd=3249198 n_nop=3249165 n_act=5 n_pre=0 n_req=18 n_rd=20 n_write=8 bw_util=1.724e-05
n_activity=268 dram_eff=0.209
bk0: 4a 3249178i bk1: 4a 3249126i bk2: 0a 3249199i bk3: 0a 3249199i bk4: 0a 3249199i bk5: 4a 3249176i bk6: 0a 3249197i bk7: 0a 3249197i bk8: 0a 3249198i bk9: 4a 3249175i bk10: 0a 3249196i bk11: 0a 3249197i bk12: 0a 3249199i bk13: 4a 3249176i bk14: 0a 3249197i bk15: 0a 3249197i 
dram_util_bins: 0 0 0 0 0 0 0 0 0 0
dram_eff_bins: 0 0 0 0 0 0 0 0 0 0
mrqq: max=3 avg=4.37031e-05
Memory Partition 3: 
Cache L2_bank_006:
MSHR contents

Cache L2_bank_007:
MSHR contents

In Dram Latency Queue (total = 0): 
DRAM[3]: 16 bks, busW=4 BL=8 CL=12, tRRD=2 tCCD=6, tRCD=12 tRAS=28 tRP=12 tRC=40
n_cmd=3249198 n_nop=3249180 n_act=2 n_pre=0 n_req=12 n_rd=8 n_write=8 bw_util=9.849e-06
n_activity=156 dram_eff=0.2051
bk0: 4a 3249178i bk1: 4a 3249128i bk2: 0a 3249197i bk3: 0a 3249198i bk4: 0a 3249198i bk5: 0a 3249198i bk6: 0a 3249198i bk7: 0a 3249198i bk8: 0a 3249198i bk9: 0a 3249198i bk10: 0a 3249198i bk11: 0a 3249198i bk12: 0a 3249198i bk13: 0a 3249198i bk14: 0a 3249198i bk15: 0a 3249198i 
dram_util_bins: 0 0 0 0 0 0 0 0 0 0
dram_eff_bins: 0 0 0 0 0 0 0 0 0 0
mrqq: max=3 avg=2.49292e-05
Memory Partition 4: 
Cache L2_bank_008:
MSHR contents

Cache L2_bank_009:
MSHR contents

In Dram Latency Queue (total = 0): 
DRAM[4]: 16 bks, busW=4 BL=8 CL=12, tRRD=2 tCCD=6, tRCD=12 tRAS=28 tRP=12 tRC=40
n_cmd=3249198 n_nop=3249181 n_act=2 n_pre=0 n_req=11 n_rd=8 n_write=7 bw_util=9.233e-06
n_activity=169 dram_eff=0.1775
bk0: 4a 3249178i bk1: 4a 3249135i bk2: 0a 3249197i bk3: 0a 3249198i bk4: 0a 3249198i bk5: 0a 3249198i bk6: 0a 3249198i bk7: 0a 3249198i bk8: 0a 3249198i bk9: 0a 3249198i bk10: 0a 3249198i bk11: 0a 3249198i bk12: 0a 3249198i bk13: 0a 3249198i bk14: 0a 3249198i bk15: 0a 3249198i 
dram_util_bins: 0 0 0 0 0 0 0 0 0 0
dram_eff_bins: 0 0 0 0 0 0 0 0 0 0
mrqq: max=1 avg=5.8476e-06
Memory Partition 5: 
Cache L2_bank_010:
MSHR contents

Cache L2_bank_011:
MSHR contents

In Dram Latency Queue (total = 0): 
DRAM[5]: 16 bks, busW=4 BL=8 CL=12, tRRD=2 tCCD=6, tRCD=12 tRAS=28 tRP=12 tRC=40
n_cmd=3249198 n_nop=3249182 n_act=2 n_pre=0 n_req=11 n_rd=6 n_write=8 bw_util=8.618e-06
n_activity=147 dram_eff=0.1905
bk0: 2a 3249182i bk1: 4a 3249142i bk2: 0a 3249198i bk3: 0a 3249198i bk4: 0a 3249198i bk5: 0a 3249198i bk6: 0a 3249198i bk7: 0a 3249198i bk8: 0a 3249198i bk9: 0a 3249198i bk10: 0a 3249198i bk11: 0a 3249198i bk12: 0a 3249198i bk13: 0a 3249198i bk14: 0a 3249198i bk15: 0a 3249198i 
dram_util_bins: 0 0 0 0 0 0 0 0 0 0
dram_eff_bins: 0 0 0 0 0 0 0 0 0 0
mrqq: max=2 avg=9.84858e-06

========= L2 cache stats =========
L2_cache_bank[0]: Access = 32, Miss = 3, Miss_rate = 0.094, Pending_hits = 6, Reservation_fails = 225
L2_cache_bank[1]: Access = 0, Miss = 0, Miss_rate = -nan, Pending_hits = 0, Reservation_fails = 0
L2_cache_bank[2]: Access = 4, Miss = 2, Miss_rate = 0.500, Pending_hits = 0, Reservation_fails = 0
L2_cache_bank[3]: Access = 0, Miss = 0, Miss_rate = -nan, Pending_hits = 0, Reservation_fails = 0
L2_cache_bank[4]: Access = 4, Miss = 2, Miss_rate = 0.500, Pending_hits = 0, Reservation_fails = 0
L2_cache_bank[5]: Access = 137, Miss = 8, Miss_rate = 0.058, Pending_hits = 6, Reservation_fails = 216
L2_cache_bank[6]: Access = 30, Miss = 2, Miss_rate = 0.067, Pending_hits = 6, Reservation_fails = 205
L2_cache_bank[7]: Access = 128, Miss = 2, Miss_rate = 0.016, Pending_hits = 6, Reservation_fails = 25
L2_cache_bank[8]: Access = 30, Miss = 2, Miss_rate = 0.067, Pending_hits = 6, Reservation_fails = 190
L2_cache_bank[9]: Access = 128, Miss = 2, Miss_rate = 0.016, Pending_hits = 5, Reservation_fails = 39
L2_cache_bank[10]: Access = 15, Miss = 1, Miss_rate = 0.067, Pending_hits = 3, Reservation_fails = 103
L2_cache_bank[11]: Access = 128, Miss = 2, Miss_rate = 0.016, Pending_hits = 6, Reservation_fails = 142
L2_total_cache_accesses = 636
L2_total_cache_misses = 26
L2_total_cache_miss_rate = 0.0409
L2_total_cache_pending_hits = 44
L2_total_cache_reservation_fails = 1145
L2_total_cache_breakdown:
	L2_cache_stats_breakdown[GLOBAL_ACC_R][HIT] = 3
	L2_cache_stats_breakdown[GLOBAL_ACC_R][MISS] = 6
	L2_cache_stats_breakdown[CONST_ACC_R][HIT] = 11
	L2_cache_stats_breakdown[CONST_ACC_R][HIT_RESERVED] = 3
	L2_cache_stats_breakdown[CONST_ACC_R][MISS] = 1
	L2_cache_stats_breakdown[CONST_ACC_R][RESERVATION_FAIL] = 109
	L2_cache_stats_breakdown[GLOBAL_ACC_W][HIT] = 481
	L2_cache_stats_breakdown[GLOBAL_ACC_W][HIT_RESERVED] = 23
	L2_cache_stats_breakdown[GLOBAL_ACC_W][MISS] = 8
	L2_cache_stats_breakdown[GLOBAL_ACC_W][RESERVATION_FAIL] = 422
	L2_cache_stats_breakdown[INST_ACC_R][HIT] = 71
	L2_cache_stats_breakdown[INST_ACC_R][HIT_RESERVED] = 18
	L2_cache_stats_breakdown[INST_ACC_R][MISS] = 11
	L2_cache_stats_breakdown[INST_ACC_R][RESERVATION_FAIL] = 614
L2_cache_data_port_util = 0.000
L2_cache_fill_port_util = 0.000

icnt_total_pkts_mem_to_simt=1102
icnt_total_pkts_simt_to_mem=1148
LD_mem_lat_dist  0 0 0 0 0 0 0 0 0 0 0 0 0 0 0 0 0 0 0 0 0 0 0 0 0 0 0
ST_mem_lat_dist  0 0 0 0 0 0 0 0 0 0 0 0 0 0 0 0 0 0 0 0 0 0 0 0 0 0 0
----------------------------Interconnect-DETAILS--------------------------------
Class 0:
Packet latency average = 9.47348
	minimum = 6
	maximum = 43
Network latency average = 9.47159
	minimum = 6
	maximum = 43
Slowest packet = 750
Flit latency average = 9.77819
	minimum = 6
	maximum = 42
Slowest flit = 1450
Fragmentation average = 0
	minimum = 0
	maximum = 0
Injected packet rate average = 1.60857e-05
	minimum = 0 (at node 16)
	maximum = 5.5112e-05 (at node 20)
Accepted packet rate average = 1.60857e-05
	minimum = 0 (at node 16)
	maximum = 5.5112e-05 (at node 20)
Injected flit rate average = 2.48598e-05
	minimum = 0 (at node 16)
	maximum = 6.49828e-05 (at node 20)
Accepted flit rate average= 2.48598e-05
	minimum = 0 (at node 16)
	maximum = 0.000107756 (at node 20)
Injected packet length average = 1.54545
Accepted packet length average = 1.54545
Total in-flight flits = 0 (0 measured)
====== Overall Traffic Statistics ======
====== Traffic class 0 ======
Packet latency average = 10.0311 (2 samples)
	minimum = 6 (2 samples)
	maximum = 50 (2 samples)
Network latency average = 9.6491 (2 samples)
	minimum = 6 (2 samples)
	maximum = 50 (2 samples)
Flit latency average = 9.5331 (2 samples)
	minimum = 6 (2 samples)
	maximum = 49 (2 samples)
Fragmentation average = 0 (2 samples)
	minimum = 0 (2 samples)
	maximum = 0 (2 samples)
Injected packet rate average = 1.91022e-05 (2 samples)
	minimum = 0 (2 samples)
	maximum = 5.56502e-05 (2 samples)
Accepted packet rate average = 1.91022e-05 (2 samples)
	minimum = 0 (2 samples)
	maximum = 5.56502e-05 (2 samples)
Injected flit rate average = 3.37458e-05 (2 samples)
	minimum = 0 (2 samples)
	maximum = 9.26933e-05 (2 samples)
Accepted flit rate average = 3.37458e-05 (2 samples)
	minimum = 0 (2 samples)
	maximum = 0.000107658 (2 samples)
Injected packet size average = 1.7666 (2 samples)
Accepted packet size average = 1.7666 (2 samples)
Hops average = 1 (2 samples)
----------------------------END-of-Interconnect-DETAILS-------------------------


gpgpu_simulation_time = 0 days, 0 hrs, 11 min, 4 sec (664 sec)
gpgpu_simulation_rate = 10892 (inst/sec)
gpgpu_simulation_rate = 3707 (cycle/sec)
GPU: 11 queen = 2680  time = 663550.250000 msec
