

        *** GPGPU-Sim Simulator Version 3.2.2  [build 0] ***


GPGPU-Sim PTX: simulation mode 0 (can change with PTX_SIM_MODE_FUNC environment variable:
               1=functional simulation only, 0=detailed performance simulator)
GPGPU-Sim: Configuration options:

-network_mode                           1 # Interconnection network mode
-inter_config_file   config_fermi_islip.icnt # Interconnection network config file
-gpgpu_ptx_use_cuobjdump                    1 # Use cuobjdump to extract ptx and sass from binaries
-gpgpu_experimental_lib_support                    0 # Try to extract code from cuda libraries [Broken because of unknown cudaGetExportTable]
-gpgpu_ptx_convert_to_ptxplus                    0 # Convert SASS (native ISA) to ptxplus and run ptxplus
-gpgpu_ptx_force_max_capability                   20 # Force maximum compute capability
-gpgpu_ptx_inst_debug_to_file                    0 # Dump executed instructions' debug information to file
-gpgpu_ptx_inst_debug_file       inst_debug.txt # Executed instructions' debug output file
-gpgpu_ptx_inst_debug_thread_uid                    1 # Thread UID for executed instructions' debug output
-gpgpu_simd_model                       1 # 1 = post-dominator
-gpgpu_shader_core_pipeline          1536:256:32 # shader core pipeline config, i.e., {<nthread>:<warpsize>}
-gpgpu_tex_cache:l1  4:128:24,L:R:m:N:L,F:128:4,128:2 # per-shader L1 texture cache  (READ-ONLY) config  {<nsets>:<bsize>:<assoc>,<rep>:<wr>:<alloc>:<wr_alloc>,<mshr>:<N>:<merge>,<mq>:<rf>}
-gpgpu_const_cache:l1 64:64:2,L:R:f:N:L,A:2:32,4 # per-shader L1 constant memory cache  (READ-ONLY) config  {<nsets>:<bsize>:<assoc>,<rep>:<wr>:<alloc>:<wr_alloc>,<mshr>:<N>:<merge>,<mq>} 
-gpgpu_cache:il1     4:128:4,L:R:f:N:L,A:2:32,4 # shader L1 instruction cache config  {<nsets>:<bsize>:<assoc>,<rep>:<wr>:<alloc>:<wr_alloc>,<mshr>:<N>:<merge>,<mq>} 
-gpgpu_cache:dl1     32:128:4,L:L:m:N:H,A:32:8,8 # per-shader L1 data cache config  {<nsets>:<bsize>:<assoc>,<rep>:<wr>:<alloc>:<wr_alloc>,<mshr>:<N>:<merge>,<mq> | none}
-gpgpu_cache:dl1PrefL1                 none # per-shader L1 data cache config  {<nsets>:<bsize>:<assoc>,<rep>:<wr>:<alloc>:<wr_alloc>,<mshr>:<N>:<merge>,<mq> | none}
-gpgpu_cache:dl1PreShared                 none # per-shader L1 data cache config  {<nsets>:<bsize>:<assoc>,<rep>:<wr>:<alloc>:<wr_alloc>,<mshr>:<N>:<merge>,<mq> | none}
-gmem_skip_L1D                          0 # global memory access skip L1D cache (implements -Xptxas -dlcm=cg, default=no skip)
-gpgpu_perfect_mem                      0 # enable perfect memory mode (no cache miss)
-n_regfile_gating_group                    4 # group of lanes that should be read/written together)
-gpgpu_clock_gated_reg_file                    0 # enable clock gated reg file for power calculations
-gpgpu_clock_gated_lanes                    0 # enable clock gated lanes for power calculations
-gpgpu_shader_registers                32768 # Number of registers per shader core. Limits number of concurrent CTAs. (default 8192)
-gpgpu_shader_cta                       8 # Maximum number of concurrent CTAs in shader (default 8)
-gpgpu_num_cta_barriers                   16 # Maximum number of named barriers per CTA (default 16)
-gpgpu_n_clusters                      15 # number of processing clusters
-gpgpu_n_cores_per_cluster                    1 # number of simd cores per cluster
-gpgpu_n_cluster_ejection_buffer_size                    8 # number of packets in ejection buffer
-gpgpu_n_ldst_response_buffer_size                    2 # number of response packets in ld/st unit ejection buffer
-gpgpu_shmem_size                   16384 # Size of shared memory per shader core (default 16kB)
-gpgpu_shmem_size                   49152 # Size of shared memory per shader core (default 16kB)
-gpgpu_shmem_size_PrefL1                16384 # Size of shared memory per shader core (default 16kB)
-gpgpu_shmem_size_PrefShared                16384 # Size of shared memory per shader core (default 16kB)
-gpgpu_shmem_num_banks                   32 # Number of banks in the shared memory in each shader core (default 16)
-gpgpu_shmem_limited_broadcast                    0 # Limit shared memory to do one broadcast per cycle (default on)
-gpgpu_shmem_warp_parts                    1 # Number of portions a warp is divided into for shared memory bank conflict check 
-gpgpu_warpdistro_shader                   -1 # Specify which shader core to collect the warp size distribution from
-gpgpu_warp_issue_shader                    0 # Specify which shader core to collect the warp issue distribution from
-gpgpu_local_mem_map                    1 # Mapping from local memory space address to simulated GPU physical address space (default = enabled)
-gpgpu_num_reg_banks                   16 # Number of register banks (default = 8)
-gpgpu_reg_bank_use_warp_id                    0 # Use warp ID in mapping registers to banks (default = off)
-gpgpu_operand_collector_num_units_sp                    6 # number of collector units (default = 4)
-gpgpu_operand_collector_num_units_sfu                    8 # number of collector units (default = 4)
-gpgpu_operand_collector_num_units_mem                    2 # number of collector units (default = 2)
-gpgpu_operand_collector_num_units_gen                    0 # number of collector units (default = 0)
-gpgpu_operand_collector_num_in_ports_sp                    2 # number of collector unit in ports (default = 1)
-gpgpu_operand_collector_num_in_ports_sfu                    1 # number of collector unit in ports (default = 1)
-gpgpu_operand_collector_num_in_ports_mem                    1 # number of collector unit in ports (default = 1)
-gpgpu_operand_collector_num_in_ports_gen                    0 # number of collector unit in ports (default = 0)
-gpgpu_operand_collector_num_out_ports_sp                    2 # number of collector unit in ports (default = 1)
-gpgpu_operand_collector_num_out_ports_sfu                    1 # number of collector unit in ports (default = 1)
-gpgpu_operand_collector_num_out_ports_mem                    1 # number of collector unit in ports (default = 1)
-gpgpu_operand_collector_num_out_ports_gen                    0 # number of collector unit in ports (default = 0)
-gpgpu_coalesce_arch                   13 # Coalescing arch (default = 13, anything else is off for now)
-gpgpu_num_sched_per_core                    1 # Number of warp schedulers per core
-gpgpu_max_insn_issue_per_warp                    1 # Max number of instructions that can be issued per warp in one cycle by scheduler
-gpgpu_simt_core_sim_order                    1 # Select the simulation order of cores in a cluster (0=Fix, 1=Round-Robin)
-gpgpu_pipeline_widths        2,1,1,2,1,1,2 # Pipeline widths ID_OC_SP,ID_OC_SFU,ID_OC_MEM,OC_EX_SP,OC_EX_SFU,OC_EX_MEM,EX_WB
-gpgpu_num_sp_units                     2 # Number of SP units (default=1)
-gpgpu_num_sfu_units                    1 # Number of SF units (default=1)
-gpgpu_num_mem_units                    1 # Number if ldst units (default=1) WARNING: not hooked up to anything
-gpgpu_scheduler                      gto # Scheduler configuration: < lrr | gto | two_level_active > If two_level_active:<num_active_warps>:<inner_prioritization>:<outer_prioritization>For complete list of prioritization values see shader.h enum scheduler_prioritization_typeDefault: gto
-gpgpu_dram_scheduler                    1 # 0 = fifo, 1 = FR-FCFS (defaul)
-gpgpu_dram_partition_queues              8:8:8:8 # i2$:$2d:d2$:$2i
-l2_ideal                               0 # Use a ideal L2 cache that always hit
-gpgpu_cache:dl2     64:128:8,L:B:m:W:L,A:32:4,4:0,32 # unified banked L2 data cache config  {<nsets>:<bsize>:<assoc>,<rep>:<wr>:<alloc>:<wr_alloc>,<mshr>:<N>:<merge>,<mq>}
-gpgpu_cache:dl2_texture_only                    0 # L2 cache used for texture only
-gpgpu_n_mem                            6 # number of memory modules (e.g. memory controllers) in gpu
-gpgpu_n_sub_partition_per_mchannel                    2 # number of memory subpartition in each memory module
-gpgpu_n_mem_per_ctrlr                    2 # number of memory chips per memory controller
-gpgpu_memlatency_stat                   14 # track and display latency statistics 0x2 enables MC, 0x4 enables queue logs
-gpgpu_frfcfs_dram_sched_queue_size                   16 # 0 = unlimited (default); # entries per chip
-gpgpu_dram_return_queue_size                  116 # 0 = unlimited (default); # entries per chip
-gpgpu_dram_buswidth                    4 # default = 4 bytes (8 bytes per cycle at DDR)
-gpgpu_dram_burst_length                    8 # Burst length of each DRAM request (default = 4 data bus cycle)
-dram_data_command_freq_ratio                    4 # Frequency ratio between DRAM data bus and command bus (default = 2 times, i.e. DDR)
-gpgpu_dram_timing_opt nbk=16:CCD=2:RRD=6:RCD=12:RAS=28:RP=12:RC=40: CL=12:WL=4:CDLR=5:WR=12:nbkgrp=4:CCDL=3:RTPL=2 # DRAM timing parameters = {nbk:tCCD:tRRD:tRCD:tRAS:tRP:tRC:CL:WL:tCDLR:tWR:nbkgrp:tCCDL:tRTPL}
-rop_latency                          120 # ROP queue latency (default 85)
-dram_latency                         100 # DRAM latency (default 30)
-gpgpu_mem_addr_mapping dramid@8;00000000.00000000.00000000.00000000.0000RRRR.RRRRRRRR.BBBCCCCB.CCSSSSSS # mapping memory address to dram model {dramid@<start bit>;<memory address map>}
-gpgpu_mem_addr_test                    0 # run sweep test to check address mapping for aliased address
-gpgpu_mem_address_mask                    1 # 0 = old addressing mask, 1 = new addressing mask, 2 = new add. mask + flipped bank sel and chip sel bits
-gpuwattch_xml_file  gpuwattch_gtx480.xml # GPUWattch XML file
-power_simulation_enabled                    1 # Turn on power simulator (1=On, 0=Off)
-power_per_cycle_dump                    0 # Dump detailed power output each cycle
-power_trace_enabled                    0 # produce a file for the power trace (1=On, 0=Off)
-power_trace_zlevel                     6 # Compression level of the power trace output log (0=no comp, 9=highest)
-steady_power_levels_enabled                    0 # produce a file for the steady power levels (1=On, 0=Off)
-steady_state_definition                  8:4 # allowed deviation:number of samples
-gpgpu_max_cycle                        0 # terminates gpu simulation early (0 = no limit)
-gpgpu_max_insn                         0 # terminates gpu simulation early (0 = no limit)
-gpgpu_max_cta                          0 # terminates gpu simulation early (0 = no limit)
-gpgpu_runtime_stat                   500 # display runtime statistics such as dram utilization {<freq>:<flag>}
-liveness_message_freq                    1 # Minimum number of seconds between simulation liveness messages (0 = always print)
-gpgpu_flush_l1_cache                    0 # Flush L1 cache at the end of each kernel call
-gpgpu_flush_l2_cache                    0 # Flush L2 cache at the end of each kernel call
-gpgpu_deadlock_detect                    1 # Stop the simulation at deadlock (1=on (default), 0=off)
-gpgpu_ptx_instruction_classification                    0 # if enabled will classify ptx instruction types per kernel (Max 255 kernels now)
-gpgpu_ptx_sim_mode                     0 # Select between Performance (default) or Functional simulation (1)
-gpgpu_clock_domains 700.0:700.0:700.0:924.0 # Clock Domain Frequencies in MhZ {<Core Clock>:<ICNT Clock>:<L2 Clock>:<DRAM Clock>}
-gpgpu_max_concurrent_kernel                    8 # maximum kernels that can run concurrently on GPU
-gpgpu_cflog_interval                    0 # Interval between each snapshot in control flow logger
-visualizer_enabled                     0 # Turn on visualizer output (1=On, 0=Off)
-visualizer_outputfile                 NULL # Specifies the output log file for visualizer
-visualizer_zlevel                      6 # Compression level of the visualizer output log (0=no comp, 9=highest)
-trace_enabled                          0 # Turn on traces
-trace_components                    none # comma seperated list of traces to enable. Complete list found in trace_streams.tup. Default none
-trace_sampling_core                    0 # The core which is printed using CORE_DPRINTF. Default 0
-trace_sampling_memory_partition                   -1 # The memory partition which is printed using MEMPART_DPRINTF. Default -1 (i.e. all)
-enable_ptx_file_line_stats                    1 # Turn on PTX source line statistic profiling. (1 = On)
-ptx_line_stats_filename gpgpu_inst_stats.txt # Output file for PTX source line statistics.
-save_embedded_ptx                      0 # saves ptx files embedded in binary as <n>.ptx
-keep                                   0 # keep intermediate files created by GPGPU-Sim when interfacing with external programs
-gpgpu_ptx_save_converted_ptxplus                    0 # Saved converted ptxplus to a file
-ptx_opcode_latency_int         4,13,4,5,145 # Opcode latencies for integers <ADD,MAX,MUL,MAD,DIV>Default 1,1,19,25,145
-ptx_opcode_latency_fp          4,13,4,5,39 # Opcode latencies for single precision floating points <ADD,MAX,MUL,MAD,DIV>Default 1,1,1,1,30
-ptx_opcode_latency_dp         8,19,8,8,330 # Opcode latencies for double precision floating points <ADD,MAX,MUL,MAD,DIV>Default 8,8,8,8,335
-ptx_opcode_initiation_int            1,2,2,1,8 # Opcode initiation intervals for integers <ADD,MAX,MUL,MAD,DIV>Default 1,1,4,4,32
-ptx_opcode_initiation_fp            1,2,1,1,4 # Opcode initiation intervals for single precision floating points <ADD,MAX,MUL,MAD,DIV>Default 1,1,1,1,5
-ptx_opcode_initiation_dp         8,16,8,8,130 # Opcode initiation intervals for double precision floating points <ADD,MAX,MUL,MAD,DIV>Default 8,8,8,8,130
ESHA: SIMD Width was found to be : 32
DRAM Timing Options:
nbk                                    16 # number of banks
CCD                                     2 # column to column delay
RRD                                     6 # minimal delay between activation of rows in different banks
RCD                                    12 # row to column delay
RAS                                    28 # time needed to activate row
RP                                     12 # time needed to precharge (deactivate) row
RC                                     40 # row cycle time
CDLR                                    5 # switching from write to read (changes tWTR)
WR                                     12 # last data-in to row precharge
CL                                     12 # CAS latency
WL                                      4 # Write latency
nbkgrp                                  4 # number of bank groups
CCDL                                    3 # column to column delay between accesses to different bank groups
RTPL                                    2 # read to precharge delay between accesses to different bank groups
Total number of memory sub partition = 12
addr_dec_mask[CHIP]  = 0000000000000000 	high:64 low:0
addr_dec_mask[BK]    = 000000000000e100 	high:16 low:8
addr_dec_mask[ROW]   = 000000000fff0000 	high:28 low:16
addr_dec_mask[COL]   = 0000000000001eff 	high:13 low:0
addr_dec_mask[BURST] = 000000000000003f 	high:6 low:0
sub_partition_id_mask = 0000000000000100
GPGPU-Sim uArch: clock freqs: 700000000.000000:700000000.000000:700000000.000000:924000000.000000
GPGPU-Sim uArch: clock periods: 0.00000000142857142857:0.00000000142857142857:0.00000000142857142857:0.00000000108225108225
ESHA_CHANGED: in shader config simd is  32 
*** Initializing Memory Statistics ***
GPGPU-Sim uArch: interconnect node map (shaderID+MemID to icntID)
GPGPU-Sim uArch: Memory nodes ID start from index: 15
GPGPU-Sim uArch:    0   1   2   3   4
GPGPU-Sim uArch:    5   6   7   8   9
GPGPU-Sim uArch:   10  11  12  13  14
GPGPU-Sim uArch:   15  16  17  18  19
GPGPU-Sim uArch:   20  21  22  23  24
GPGPU-Sim uArch:   25  26
GPGPU-Sim uArch: interconnect node reverse map (icntID to shaderID+MemID)
GPGPU-Sim uArch: Memory nodes start from ID: 15
GPGPU-Sim uArch:    0   1   2   3   4
GPGPU-Sim uArch:    5   6   7   8   9
GPGPU-Sim uArch:   10  11  12  13  14
GPGPU-Sim uArch:   15  16  17  18  19
GPGPU-Sim uArch:   20  21  22  23  24
GPGPU-Sim uArch:   25  26
59223c5836e436fa179bac05233b3051  /home/kishore/project_source/gpu_class_proj/gpgpusim-benchmarks-master/bin/release/NQU
GPGPU-Sim uArch: performance model initialization complete.
GPGPU-Sim PTX: __cudaRegisterFatBinary, fat_cubin_handle = 1, filename=nqueen.cu
self exe links to: /home/kishore/project_source/gpu_class_proj/gpgpusim-benchmarks-master/bin/release/NQU
Running md5sum using "md5sum /home/kishore/project_source/gpu_class_proj/gpgpusim-benchmarks-master/bin/release/NQU "
Running cuobjdump using "$CUDA_INSTALL_PATH/bin/cuobjdump -ptx -elf -sass /home/kishore/project_source/gpu_class_proj/gpgpusim-benchmarks-master/bin/release/NQU > _cuobjdump_complete_output_yvvoSy"
Parsing file _cuobjdump_complete_output_yvvoSy
######### cuobjdump parser ########
## Adding new section PTX
Adding ptx filename: _cuobjdump_1.ptx
Adding arch: sm_10
Adding identifier: nqueen.cu
## Adding new section ELF
Adding arch: sm_10
Adding identifier: nqueen.cu
## Adding new section PTX
Adding ptx filename: _cuobjdump_2.ptx
Adding arch: sm_20
Adding identifier: nqueen.cu
## Adding new section ELF
Adding arch: sm_20
Adding identifier: nqueen.cu
Done parsing!!!
GPGPU-Sim PTX: __cudaRegisterFunction _Z24solve_nqueen_cuda_kerneliiPjS_S_S_i : hostFun 0x0x403b20, fat_cubin_handle = 1
GPGPU-Sim PTX: allocating shared region for "__cuda___cuda_local_var_65604_39_non_const_sum44" from 0x0 to 0x180 (shared memory space)
GPGPU-Sim PTX: allocating shared region for "__cuda___cuda_local_var_65599_39_non_const_mask428" from 0x180 to 0x1080 (shared memory space)
GPGPU-Sim PTX: allocating shared region for "__cuda___cuda_local_var_65601_39_non_const_r_mask4268" from 0x1080 to 0x1f80 (shared memory space)
GPGPU-Sim PTX: allocating shared region for "__cuda___cuda_local_var_65600_39_non_const_l_mask8108" from 0x1f80 to 0x2e80 (shared memory space)
GPGPU-Sim PTX: allocating shared region for "__cuda___cuda_local_var_65602_39_non_const_m11948" from 0x2e80 to 0x3d80 (shared memory space)
GPGPU-Sim PTX: instruction assembly for function '_Z24solve_nqueen_cuda_kerneliiPjS_S_S_i'...   done.
GPGPU-Sim PTX: finding reconvergence points for '_Z24solve_nqueen_cuda_kerneliiPjS_S_S_i'...
GPGPU-Sim PTX: Finding dominators for '_Z24solve_nqueen_cuda_kerneliiPjS_S_S_i'...
GPGPU-Sim PTX: Finding immediate dominators for '_Z24solve_nqueen_cuda_kerneliiPjS_S_S_i'...
GPGPU-Sim PTX: Finding postdominators for '_Z24solve_nqueen_cuda_kerneliiPjS_S_S_i'...
GPGPU-Sim PTX: Finding immediate postdominators for '_Z24solve_nqueen_cuda_kerneliiPjS_S_S_i'...
GPGPU-Sim PTX: pre-decoding instructions for '_Z24solve_nqueen_cuda_kerneliiPjS_S_S_i'...
GPGPU-Sim PTX: reconvergence points for _Z24solve_nqueen_cuda_kerneliiPjS_S_S_i...
GPGPU-Sim PTX:  1 (potential) branch divergence @  PC=0x058 (_1.ptx:81) @%p1 bra $Lt_0_10754;
GPGPU-Sim PTX:    immediate post dominator      @  PC=0x328 (_1.ptx:198) bar.sync 0;
GPGPU-Sim PTX:  2 (potential) branch divergence @  PC=0x198 (_1.ptx:127) @%p2 bra $Lt_0_12034;
GPGPU-Sim PTX:    immediate post dominator      @  PC=0x2f0 (_1.ptx:186) mov.u32 %r37, 0;
GPGPU-Sim PTX:  3 (potential) branch divergence @  PC=0x1b0 (_1.ptx:131) bra.uni $Lt_0_12290;
GPGPU-Sim PTX:    immediate post dominator      @  PC=0x2f0 (_1.ptx:186) mov.u32 %r37, 0;
GPGPU-Sim PTX:  4 (potential) branch divergence @  PC=0x1f8 (_1.ptx:143) @%p3 bra $Lt_0_12546;
GPGPU-Sim PTX:    immediate post dominator      @  PC=0x2f0 (_1.ptx:186) mov.u32 %r37, 0;
GPGPU-Sim PTX:  5 (potential) branch divergence @  PC=0x218 (_1.ptx:147) @%p4 bra $Lt_0_13058;
GPGPU-Sim PTX:    immediate post dominator      @  PC=0x2f0 (_1.ptx:186) mov.u32 %r37, 0;
GPGPU-Sim PTX:  6 (potential) branch divergence @  PC=0x238 (_1.ptx:153) bra.uni $Lt_0_12290;
GPGPU-Sim PTX:    immediate post dominator      @  PC=0x2f0 (_1.ptx:186) mov.u32 %r37, 0;
GPGPU-Sim PTX:  7 (potential) branch divergence @  PC=0x2d8 (_1.ptx:179) bra.uni $Lt_0_12290;
GPGPU-Sim PTX:    immediate post dominator      @  PC=0x2f0 (_1.ptx:186) mov.u32 %r37, 0;
GPGPU-Sim PTX:  8 (potential) branch divergence @  PC=0x300 (_1.ptx:188) @%p5 bra $Lt_0_11522;
GPGPU-Sim PTX:    immediate post dominator      @  PC=0x308 (_1.ptx:190) st.shared.u32 [%rd4+0], %r16;
GPGPU-Sim PTX:  9 (potential) branch divergence @  PC=0x310 (_1.ptx:191) bra.uni $Lt_0_10498;
GPGPU-Sim PTX:    immediate post dominator      @  PC=0x328 (_1.ptx:198) bar.sync 0;
GPGPU-Sim PTX: 10 (potential) branch divergence @  PC=0x340 (_1.ptx:201) @!%p6 bra $Lt_0_13570;
GPGPU-Sim PTX:    immediate post dominator      @  PC=0x368 (_1.ptx:208) bar.sync 0;
GPGPU-Sim PTX: 11 (potential) branch divergence @  PC=0x370 (_1.ptx:209) @!%p6 bra $Lt_0_14082;
GPGPU-Sim PTX:    immediate post dominator      @  PC=0x398 (_1.ptx:216) bar.sync 0;
GPGPU-Sim PTX: 12 (potential) branch divergence @  PC=0x3b0 (_1.ptx:219) @%p7 bra $Lt_0_14594;
GPGPU-Sim PTX:    immediate post dominator      @  PC=0x3d8 (_1.ptx:226) bar.sync 0;
GPGPU-Sim PTX: 13 (potential) branch divergence @  PC=0x3f0 (_1.ptx:229) @%p8 bra $Lt_0_15106;
GPGPU-Sim PTX:    immediate post dominator      @  PC=0x418 (_1.ptx:236) bar.sync 0;
GPGPU-Sim PTX: 14 (potential) branch divergence @  PC=0x430 (_1.ptx:239) @%p9 bra $Lt_0_15618;
GPGPU-Sim PTX:    immediate post dominator      @  PC=0x458 (_1.ptx:246) bar.sync 0;
GPGPU-Sim PTX: 15 (potential) branch divergence @  PC=0x470 (_1.ptx:249) @%p10 bra $Lt_0_16130;
GPGPU-Sim PTX:    immediate post dominator      @  PC=0x498 (_1.ptx:256) bar.sync 0;
GPGPU-Sim PTX: 16 (potential) branch divergence @  PC=0x4b0 (_1.ptx:259) @%p11 bra $Lt_0_16642;
GPGPU-Sim PTX:    immediate post dominator      @  PC=0x4d8 (_1.ptx:266) bar.sync 0;
GPGPU-Sim PTX: 17 (potential) branch divergence @  PC=0x4f0 (_1.ptx:269) @%p12 bra $Lt_0_17154;
GPGPU-Sim PTX:    immediate post dominator      @  PC=0x528 (_1.ptx:279) exit;
GPGPU-Sim PTX: ... end of reconvergence points for _Z24solve_nqueen_cuda_kerneliiPjS_S_S_i
GPGPU-Sim PTX: ... done pre-decoding instructions for '_Z24solve_nqueen_cuda_kerneliiPjS_S_S_i'.
GPGPU-Sim PTX: finished parsing EMBEDDED .ptx file _1.ptx
Adding _cuobjdump_2.ptx with cubin handle 1
GPGPU-Sim PTX: extracting embedded .ptx to temporary file "_ptx_R6pDPw"
Running: cat _ptx_R6pDPw | sed 's/.version 1.5/.version 1.4/' | sed 's/, texmode_independent//' | sed 's/\(\.extern \.const\[1\] .b8 \w\+\)\[\]/\1\[1\]/' | sed 's/const\[.\]/const\[0\]/g' > _ptx2_C0UTMu
GPGPU-Sim PTX: generating ptxinfo using "$CUDA_INSTALL_PATH/bin/ptxas --gpu-name=sm_20 -v _ptx2_C0UTMu --output-file  /dev/null 2> _ptx_R6pDPwinfo"
GPGPU-Sim PTX: Kernel '_Z24solve_nqueen_cuda_kerneliiPjS_S_S_i' : regs=15, lmem=0, smem=15744, cmem=76
GPGPU-Sim PTX: removing ptxinfo using "rm -f _ptx_R6pDPw _ptx2_C0UTMu _ptx_R6pDPwinfo"
GPGPU-Sim PTX: loading globals with explicit initializers... 
GPGPU-Sim PTX: finished loading globals (0 bytes total).
GPGPU-Sim PTX: loading constants with explicit initializers...  done.
Usage: ../bin/release/NQU [-c|-g] n steps
  -c: CPU only
  -g: GPU only
  n: n-queen
  steps: step for GPU
Default to 8 queen
CUDA initialized.
GPGPU-Sim: synchronize waiting for inactive GPU simulation
GPGPU-Sim API: Stream Manager State
GPGPU-Sim: detected inactive GPU simulation thread
CPU: 11 queen = 2680  time = 1.507000 msec
GPGPU-Sim: synchronize waiting for inactive GPU simulation
GPGPU-Sim API: Stream Manager State
GPGPU-Sim: detected inactive GPU simulation thread
256 96

GPGPU-Sim PTX: cudaLaunch for 0x0x403b20 (mode=performance simulation) on stream 0
GPGPU-Sim PTX: pushing kernel '_Z24solve_nqueen_cuda_kerneliiPjS_S_S_i' to stream 0, gridDim= (256,1,1) blockDim = (96,1,1) 
kernel '_Z24solve_nqueen_cuda_kerneliiPjS_S_S_i' transfer to GPU hardware scheduler
GPGPU-Sim uArch: Shader 1 bind to kernel 1 '_Z24solve_nqueen_cuda_kerneliiPjS_S_S_i'
GPGPU-Sim uArch: CTA/core = 3, limited by: shmem
GPGPU-Sim uArch: core:  1, cta: 0 initialized @(1,0)
GPGPU-Sim uArch: Shader 2 bind to kernel 1 '_Z24solve_nqueen_cuda_kerneliiPjS_S_S_i'
GPGPU-Sim uArch: core:  2, cta: 0 initialized @(1,0)
GPGPU-Sim uArch: Shader 3 bind to kernel 1 '_Z24solve_nqueen_cuda_kerneliiPjS_S_S_i'
GPGPU-Sim uArch: core:  3, cta: 0 initialized @(1,0)
GPGPU-Sim uArch: Shader 4 bind to kernel 1 '_Z24solve_nqueen_cuda_kerneliiPjS_S_S_i'
GPGPU-Sim uArch: core:  4, cta: 0 initialized @(1,0)
GPGPU-Sim uArch: Shader 5 bind to kernel 1 '_Z24solve_nqueen_cuda_kerneliiPjS_S_S_i'
GPGPU-Sim uArch: core:  5, cta: 0 initialized @(1,0)
GPGPU-Sim uArch: Shader 6 bind to kernel 1 '_Z24solve_nqueen_cuda_kerneliiPjS_S_S_i'
GPGPU-Sim uArch: core:  6, cta: 0 initialized @(1,0)
GPGPU-Sim uArch: Shader 7 bind to kernel 1 '_Z24solve_nqueen_cuda_kerneliiPjS_S_S_i'
GPGPU-Sim uArch: core:  7, cta: 0 initialized @(1,0)
GPGPU-Sim uArch: Shader 8 bind to kernel 1 '_Z24solve_nqueen_cuda_kerneliiPjS_S_S_i'
GPGPU-Sim uArch: core:  8, cta: 0 initialized @(1,0)
GPGPU-Sim uArch: Shader 9 bind to kernel 1 '_Z24solve_nqueen_cuda_kerneliiPjS_S_S_i'
GPGPU-Sim uArch: core:  9, cta: 0 initialized @(1,0)
GPGPU-Sim uArch: Shader 10 bind to kernel 1 '_Z24solve_nqueen_cuda_kerneliiPjS_S_S_i'
GPGPU-Sim uArch: core: 10, cta: 0 initialized @(1,0)
GPGPU-Sim uArch: Shader 11 bind to kernel 1 '_Z24solve_nqueen_cuda_kerneliiPjS_S_S_i'
GPGPU-Sim uArch: core: 11, cta: 0 initialized @(1,0)
GPGPU-Sim uArch: Shader 12 bind to kernel 1 '_Z24solve_nqueen_cuda_kerneliiPjS_S_S_i'
GPGPU-Sim uArch: core: 12, cta: 0 initialized @(1,0)
GPGPU-Sim uArch: Shader 13 bind to kernel 1 '_Z24solve_nqueen_cuda_kerneliiPjS_S_S_i'
GPGPU-Sim uArch: core: 13, cta: 0 initialized @(1,0)
GPGPU-Sim uArch: Shader 14 bind to kernel 1 '_Z24solve_nqueen_cuda_kerneliiPjS_S_S_i'
GPGPU-Sim uArch: core: 14, cta: 0 initialized @(1,0)
GPGPU-Sim uArch: Shader 0 bind to kernel 1 '_Z24solve_nqueen_cuda_kerneliiPjS_S_S_i'
GPGPU-Sim uArch: core:  0, cta: 0 initialized @(1,0)
GPGPU-Sim uArch: core:  1, cta: 1 initialized @(2,0)
GPGPU-Sim uArch: core:  2, cta: 1 initialized @(2,0)
GPGPU-Sim uArch: core:  3, cta: 1 initialized @(2,0)
GPGPU-Sim uArch: core:  4, cta: 1 initialized @(2,0)
GPGPU-Sim uArch: core:  5, cta: 1 initialized @(2,0)
GPGPU-Sim uArch: core:  6, cta: 1 initialized @(2,0)
GPGPU-Sim uArch: core:  7, cta: 1 initialized @(2,0)
GPGPU-Sim uArch: core:  8, cta: 1 initialized @(2,0)
GPGPU-Sim uArch: core:  9, cta: 1 initialized @(2,0)
GPGPU-Sim uArch: core: 10, cta: 1 initialized @(2,0)
GPGPU-Sim uArch: core: 11, cta: 1 initialized @(2,0)
GPGPU-Sim uArch: core: 12, cta: 1 initialized @(2,0)
GPGPU-Sim uArch: core: 13, cta: 1 initialized @(2,0)
GPGPU-Sim uArch: core: 14, cta: 1 initialized @(2,0)
GPGPU-Sim uArch: core:  0, cta: 1 initialized @(2,0)
GPGPU-Sim uArch: core:  1, cta: 2 initialized @(3,0)
GPGPU-Sim uArch: core:  2, cta: 2 initialized @(3,0)
GPGPU-Sim uArch: core:  3, cta: 2 initialized @(3,0)
GPGPU-Sim uArch: core:  4, cta: 2 initialized @(3,0)
GPGPU-Sim uArch: core:  5, cta: 2 initialized @(3,0)
GPGPU-Sim uArch: core:  6, cta: 2 initialized @(3,0)
GPGPU-Sim uArch: core:  7, cta: 2 initialized @(3,0)
GPGPU-Sim uArch: core:  8, cta: 2 initialized @(3,0)
GPGPU-Sim uArch: core:  9, cta: 2 initialized @(3,0)
GPGPU-Sim uArch: core: 10, cta: 2 initialized @(3,0)
GPGPU-Sim uArch: core: 11, cta: 2 initialized @(3,0)
GPGPU-Sim uArch: core: 12, cta: 2 initialized @(3,0)
GPGPU-Sim uArch: core: 13, cta: 2 initialized @(3,0)
GPGPU-Sim uArch: core: 14, cta: 2 initialized @(3,0)
GPGPU-Sim uArch: core:  0, cta: 2 initialized @(3,0)
GPGPU-Sim uArch: cycles simulated: 500  inst.: 38880 (ipc=77.8) sim_rate=38880 (inst/sec) elapsed = 0:0:00:01 / Wed May 13 09:55:42 2015
GPGPU-Sim uArch: cycles simulated: 1000  inst.: 90249 (ipc=90.2) sim_rate=45124 (inst/sec) elapsed = 0:0:00:02 / Wed May 13 09:55:43 2015
GPGPU-Sim PTX: 100000 instructions simulated : ctaid=(16,0,0) tid=(30,0,0)
GPGPU-Sim uArch: cycles simulated: 1500  inst.: 131020 (ipc=87.3) sim_rate=43673 (inst/sec) elapsed = 0:0:00:03 / Wed May 13 09:55:44 2015
GPGPU-Sim PTX: 200000 instructions simulated : ctaid=(23,0,0) tid=(3,0,0)
GPGPU-Sim uArch: cycles simulated: 2000  inst.: 199569 (ipc=99.8) sim_rate=49892 (inst/sec) elapsed = 0:0:00:04 / Wed May 13 09:55:45 2015
GPGPU-Sim uArch: Shader 3 finished CTA #0 (2465,0), 2 CTAs running
GPGPU-Sim uArch: core:  3, cta: 0 initialized @(2466,0)
GPGPU-Sim uArch: Shader 0 finished CTA #0 (2481,0), 2 CTAs running
GPGPU-Sim uArch: core:  0, cta: 0 initialized @(2482,0)
GPGPU-Sim uArch: Shader 5 finished CTA #0 (2483,0), 2 CTAs running
GPGPU-Sim uArch: core:  5, cta: 0 initialized @(2484,0)
GPGPU-Sim uArch: Shader 0 finished CTA #1 (2485,0), 2 CTAs running
GPGPU-Sim uArch: core:  0, cta: 1 initialized @(2486,0)
GPGPU-Sim uArch: Shader 3 finished CTA #1 (2487,0), 2 CTAs running
GPGPU-Sim uArch: core:  3, cta: 1 initialized @(2488,0)
GPGPU-Sim uArch: Shader 1 finished CTA #1 (2489,0), 2 CTAs running
GPGPU-Sim uArch: core:  1, cta: 1 initialized @(2490,0)
GPGPU-Sim uArch: Shader 2 finished CTA #0 (2491,0), 2 CTAs running
GPGPU-Sim uArch: core:  2, cta: 0 initialized @(2492,0)
GPGPU-Sim uArch: Shader 4 finished CTA #0 (2493,0), 2 CTAs running
GPGPU-Sim uArch: core:  4, cta: 0 initialized @(2494,0)
GPGPU-Sim uArch: Shader 5 finished CTA #1 (2495,0), 2 CTAs running
GPGPU-Sim uArch: core:  5, cta: 1 initialized @(2496,0)
GPGPU-Sim uArch: Shader 6 finished CTA #0 (2497,0), 2 CTAs running
GPGPU-Sim uArch: core:  6, cta: 0 initialized @(2498,0)
GPGPU-Sim uArch: Shader 3 finished CTA #2 (2499,0), 2 CTAs running
GPGPU-Sim uArch: core:  3, cta: 2 initialized @(2500,0)
GPGPU-Sim uArch: Shader 1 finished CTA #2 (2501,0), 2 CTAs running
GPGPU-Sim uArch: core:  1, cta: 2 initialized @(2502,0)
GPGPU-Sim uArch: Shader 2 finished CTA #1 (2503,0), 2 CTAs running
GPGPU-Sim uArch: core:  2, cta: 1 initialized @(2504,0)
GPGPU-Sim uArch: Shader 6 finished CTA #1 (2505,0), 2 CTAs running
GPGPU-Sim uArch: core:  6, cta: 1 initialized @(2506,0)
GPGPU-Sim uArch: Shader 7 finished CTA #0 (2507,0), 2 CTAs running
GPGPU-Sim uArch: core:  7, cta: 0 initialized @(2508,0)
GPGPU-Sim uArch: Shader 8 finished CTA #0 (2509,0), 2 CTAs running
GPGPU-Sim uArch: core:  8, cta: 0 initialized @(2510,0)
GPGPU-Sim uArch: Shader 9 finished CTA #0 (2511,0), 2 CTAs running
GPGPU-Sim uArch: core:  9, cta: 0 initialized @(2512,0)
GPGPU-Sim uArch: Shader 10 finished CTA #0 (2513,0), 2 CTAs running
GPGPU-Sim uArch: core: 10, cta: 0 initialized @(2514,0)
GPGPU-Sim uArch: Shader 11 finished CTA #0 (2515,0), 2 CTAs running
GPGPU-Sim uArch: core: 11, cta: 0 initialized @(2516,0)
GPGPU-Sim uArch: Shader 2 finished CTA #2 (2517,0), 2 CTAs running
GPGPU-Sim uArch: core:  2, cta: 2 initialized @(2518,0)
GPGPU-Sim uArch: Shader 6 finished CTA #2 (2519,0), 2 CTAs running
GPGPU-Sim uArch: core:  6, cta: 2 initialized @(2520,0)
GPGPU-Sim uArch: Shader 7 finished CTA #1 (2521,0), 2 CTAs running
GPGPU-Sim uArch: core:  7, cta: 1 initialized @(2522,0)
GPGPU-Sim uArch: Shader 8 finished CTA #1 (2523,0), 2 CTAs running
GPGPU-Sim uArch: core:  8, cta: 1 initialized @(2524,0)
GPGPU-Sim uArch: Shader 4 finished CTA #1 (2525,0), 2 CTAs running
GPGPU-Sim uArch: core:  4, cta: 1 initialized @(2526,0)
GPGPU-Sim uArch: Shader 9 finished CTA #1 (2527,0), 2 CTAs running
GPGPU-Sim uArch: core:  9, cta: 1 initialized @(2528,0)
GPGPU-Sim uArch: Shader 10 finished CTA #1 (2529,0), 2 CTAs running
GPGPU-Sim uArch: core: 10, cta: 1 initialized @(2530,0)
GPGPU-Sim uArch: Shader 11 finished CTA #1 (2531,0), 2 CTAs running
GPGPU-Sim uArch: core: 11, cta: 1 initialized @(2532,0)
GPGPU-Sim uArch: Shader 12 finished CTA #0 (2533,0), 2 CTAs running
GPGPU-Sim uArch: core: 12, cta: 0 initialized @(2534,0)
GPGPU-Sim uArch: Shader 13 finished CTA #0 (2535,0), 2 CTAs running
GPGPU-Sim uArch: core: 13, cta: 0 initialized @(2536,0)
GPGPU-Sim uArch: Shader 14 finished CTA #0 (2537,0), 2 CTAs running
GPGPU-Sim uArch: core: 14, cta: 0 initialized @(2538,0)
GPGPU-Sim uArch: Shader 7 finished CTA #2 (2539,0), 2 CTAs running
GPGPU-Sim uArch: core:  7, cta: 2 initialized @(2540,0)
GPGPU-Sim uArch: Shader 8 finished CTA #2 (2541,0), 2 CTAs running
GPGPU-Sim uArch: core:  8, cta: 2 initialized @(2542,0)
GPGPU-Sim uArch: Shader 9 finished CTA #2 (2543,0), 2 CTAs running
GPGPU-Sim uArch: core:  9, cta: 2 initialized @(2544,0)
GPGPU-Sim uArch: Shader 10 finished CTA #2 (2545,0), 2 CTAs running
GPGPU-Sim uArch: core: 10, cta: 2 initialized @(2546,0)
GPGPU-Sim uArch: Shader 11 finished CTA #2 (2547,0), 2 CTAs running
GPGPU-Sim uArch: core: 11, cta: 2 initialized @(2548,0)
GPGPU-Sim uArch: Shader 12 finished CTA #1 (2549,0), 2 CTAs running
GPGPU-Sim uArch: core: 12, cta: 1 initialized @(2550,0)
GPGPU-Sim uArch: Shader 13 finished CTA #1 (2551,0), 2 CTAs running
GPGPU-Sim uArch: core: 13, cta: 1 initialized @(2552,0)
GPGPU-Sim uArch: Shader 14 finished CTA #1 (2553,0), 2 CTAs running
GPGPU-Sim uArch: core: 14, cta: 1 initialized @(2554,0)
GPGPU-Sim uArch: Shader 12 finished CTA #2 (2555,0), 2 CTAs running
GPGPU-Sim uArch: core: 12, cta: 2 initialized @(2556,0)
GPGPU-Sim uArch: Shader 13 finished CTA #2 (2557,0), 2 CTAs running
GPGPU-Sim uArch: core: 13, cta: 2 initialized @(2558,0)
GPGPU-Sim uArch: Shader 14 finished CTA #2 (2559,0), 2 CTAs running
GPGPU-Sim uArch: core: 14, cta: 2 initialized @(2560,0)
GPGPU-Sim uArch: Shader 4 finished CTA #2 (2588,0), 2 CTAs running
GPGPU-Sim uArch: core:  4, cta: 2 initialized @(2589,0)
GPGPU-Sim uArch: Shader 0 finished CTA #2 (2595,0), 2 CTAs running
GPGPU-Sim uArch: core:  0, cta: 2 initialized @(2596,0)
GPGPU-Sim uArch: Shader 5 finished CTA #2 (2598,0), 2 CTAs running
GPGPU-Sim uArch: core:  5, cta: 2 initialized @(2599,0)
GPGPU-Sim PTX: 300000 instructions simulated : ctaid=(69,0,0) tid=(87,0,0)
GPGPU-Sim PTX: 400000 instructions simulated : ctaid=(55,0,0) tid=(74,0,0)
GPGPU-Sim uArch: Shader 3 finished CTA #0 (2983,0), 2 CTAs running
GPGPU-Sim uArch: core:  3, cta: 0 initialized @(2984,0)
GPGPU-Sim uArch: cycles simulated: 3000  inst.: 409553 (ipc=136.5) sim_rate=58507 (inst/sec) elapsed = 0:0:00:07 / Wed May 13 09:55:48 2015
GPGPU-Sim uArch: Shader 0 finished CTA #0 (3002,0), 2 CTAs running
GPGPU-Sim uArch: core:  0, cta: 0 initialized @(3003,0)
GPGPU-Sim uArch: Shader 1 finished CTA #1 (3005,0), 2 CTAs running
GPGPU-Sim uArch: core:  1, cta: 1 initialized @(3006,0)
GPGPU-Sim uArch: Shader 2 finished CTA #0 (3008,0), 2 CTAs running
GPGPU-Sim uArch: core:  2, cta: 0 initialized @(3009,0)
GPGPU-Sim uArch: Shader 5 finished CTA #0 (3011,0), 2 CTAs running
GPGPU-Sim uArch: core:  5, cta: 0 initialized @(3012,0)
GPGPU-Sim uArch: Shader 0 finished CTA #1 (3014,0), 2 CTAs running
GPGPU-Sim uArch: core:  0, cta: 1 initialized @(3015,0)
GPGPU-Sim uArch: Shader 1 finished CTA #2 (3017,0), 2 CTAs running
GPGPU-Sim uArch: core:  1, cta: 2 initialized @(3018,0)
GPGPU-Sim uArch: Shader 3 finished CTA #1 (3020,0), 2 CTAs running
GPGPU-Sim uArch: core:  3, cta: 1 initialized @(3021,0)
GPGPU-Sim uArch: Shader 4 finished CTA #0 (3023,0), 2 CTAs running
GPGPU-Sim uArch: core:  4, cta: 0 initialized @(3024,0)
GPGPU-Sim uArch: Shader 5 finished CTA #1 (3026,0), 2 CTAs running
GPGPU-Sim uArch: core:  5, cta: 1 initialized @(3027,0)
GPGPU-Sim uArch: Shader 6 finished CTA #0 (3029,0), 2 CTAs running
GPGPU-Sim uArch: core:  6, cta: 0 initialized @(3030,0)
GPGPU-Sim uArch: Shader 7 finished CTA #0 (3032,0), 2 CTAs running
GPGPU-Sim uArch: core:  7, cta: 0 initialized @(3033,0)
GPGPU-Sim uArch: Shader 8 finished CTA #0 (3035,0), 2 CTAs running
GPGPU-Sim uArch: core:  8, cta: 0 initialized @(3036,0)
GPGPU-Sim uArch: Shader 10 finished CTA #0 (3038,0), 2 CTAs running
GPGPU-Sim uArch: core: 10, cta: 0 initialized @(3039,0)
GPGPU-Sim uArch: Shader 11 finished CTA #0 (3041,0), 2 CTAs running
GPGPU-Sim uArch: core: 11, cta: 0 initialized @(3042,0)
GPGPU-Sim uArch: Shader 2 finished CTA #1 (3044,0), 2 CTAs running
GPGPU-Sim uArch: core:  2, cta: 1 initialized @(3045,0)
GPGPU-Sim uArch: Shader 3 finished CTA #2 (3047,0), 2 CTAs running
GPGPU-Sim uArch: core:  3, cta: 2 initialized @(3048,0)
GPGPU-Sim uArch: Shader 6 finished CTA #1 (3050,0), 2 CTAs running
GPGPU-Sim uArch: core:  6, cta: 1 initialized @(3051,0)
GPGPU-Sim uArch: Shader 9 finished CTA #0 (3053,0), 2 CTAs running
GPGPU-Sim uArch: core:  9, cta: 0 initialized @(3054,0)
GPGPU-Sim uArch: Shader 7 finished CTA #1 (3155,0), 2 CTAs running
GPGPU-Sim uArch: core:  7, cta: 1 initialized @(3156,0)
GPGPU-Sim uArch: Shader 2 finished CTA #2 (3172,0), 2 CTAs running
GPGPU-Sim uArch: core:  2, cta: 2 initialized @(3173,0)
GPGPU-Sim uArch: Shader 12 finished CTA #0 (3174,0), 2 CTAs running
GPGPU-Sim uArch: core: 12, cta: 0 initialized @(3175,0)
GPGPU-Sim uArch: Shader 13 finished CTA #0 (3176,0), 2 CTAs running
GPGPU-Sim uArch: core: 13, cta: 0 initialized @(3177,0)
GPGPU-Sim uArch: Shader 8 finished CTA #1 (3178,0), 2 CTAs running
GPGPU-Sim uArch: core:  8, cta: 1 initialized @(3179,0)
GPGPU-Sim uArch: Shader 14 finished CTA #0 (3180,0), 2 CTAs running
GPGPU-Sim uArch: core: 14, cta: 0 initialized @(3181,0)
GPGPU-Sim uArch: Shader 9 finished CTA #1 (3182,0), 2 CTAs running
GPGPU-Sim uArch: core:  9, cta: 1 initialized @(3183,0)
GPGPU-Sim uArch: Shader 4 finished CTA #1 (3184,0), 2 CTAs running
GPGPU-Sim uArch: core:  4, cta: 1 initialized @(3185,0)
GPGPU-Sim uArch: Shader 10 finished CTA #1 (3186,0), 2 CTAs running
GPGPU-Sim uArch: core: 10, cta: 1 initialized @(3187,0)
GPGPU-Sim uArch: Shader 11 finished CTA #1 (3188,0), 2 CTAs running
GPGPU-Sim uArch: core: 11, cta: 1 initialized @(3189,0)
GPGPU-Sim uArch: Shader 6 finished CTA #2 (3190,0), 2 CTAs running
GPGPU-Sim uArch: core:  6, cta: 2 initialized @(3191,0)
GPGPU-Sim uArch: Shader 12 finished CTA #1 (3192,0), 2 CTAs running
GPGPU-Sim uArch: core: 12, cta: 1 initialized @(3193,0)
GPGPU-Sim uArch: Shader 13 finished CTA #1 (3194,0), 2 CTAs running
GPGPU-Sim uArch: core: 13, cta: 1 initialized @(3195,0)
GPGPU-Sim uArch: Shader 14 finished CTA #1 (3196,0), 2 CTAs running
GPGPU-Sim uArch: core: 14, cta: 1 initialized @(3197,0)
GPGPU-Sim uArch: Shader 7 finished CTA #2 (3198,0), 2 CTAs running
GPGPU-Sim uArch: core:  7, cta: 2 initialized @(3199,0)
GPGPU-Sim uArch: Shader 8 finished CTA #2 (3201,0), 2 CTAs running
GPGPU-Sim uArch: core:  8, cta: 2 initialized @(3202,0)
GPGPU-Sim uArch: Shader 9 finished CTA #2 (3202,0), 2 CTAs running
GPGPU-Sim uArch: core:  9, cta: 2 initialized @(3203,0)
GPGPU-Sim uArch: Shader 10 finished CTA #2 (3204,0), 2 CTAs running
GPGPU-Sim uArch: core: 10, cta: 2 initialized @(3205,0)
GPGPU-Sim uArch: Shader 11 finished CTA #2 (3206,0), 2 CTAs running
GPGPU-Sim uArch: core: 11, cta: 2 initialized @(3207,0)
GPGPU-Sim uArch: Shader 12 finished CTA #2 (3208,0), 2 CTAs running
GPGPU-Sim uArch: core: 12, cta: 2 initialized @(3209,0)
GPGPU-Sim uArch: Shader 13 finished CTA #2 (3210,0), 2 CTAs running
GPGPU-Sim uArch: core: 13, cta: 2 initialized @(3211,0)
GPGPU-Sim uArch: Shader 14 finished CTA #2 (3212,0), 2 CTAs running
GPGPU-Sim uArch: core: 14, cta: 2 initialized @(3213,0)
GPGPU-Sim uArch: Shader 0 finished CTA #2 (3214,0), 2 CTAs running
GPGPU-Sim uArch: core:  0, cta: 2 initialized @(3215,0)
GPGPU-Sim uArch: Shader 4 finished CTA #2 (3216,0), 2 CTAs running
GPGPU-Sim uArch: core:  4, cta: 2 initialized @(3217,0)
GPGPU-Sim uArch: Shader 5 finished CTA #2 (3218,0), 2 CTAs running
GPGPU-Sim uArch: core:  5, cta: 2 initialized @(3219,0)
GPGPU-Sim PTX: 500000 instructions simulated : ctaid=(96,0,0) tid=(0,0,0)
GPGPU-Sim PTX: 600000 instructions simulated : ctaid=(117,0,0) tid=(40,0,0)
GPGPU-Sim uArch: cycles simulated: 3500  inst.: 596543 (ipc=170.4) sim_rate=59654 (inst/sec) elapsed = 0:0:00:10 / Wed May 13 09:55:51 2015
GPGPU-Sim uArch: Shader 3 finished CTA #0 (3508,0), 2 CTAs running
GPGPU-Sim uArch: core:  3, cta: 0 initialized @(3509,0)
GPGPU-Sim uArch: Shader 0 finished CTA #0 (3524,0), 2 CTAs running
GPGPU-Sim uArch: core:  0, cta: 0 initialized @(3525,0)
GPGPU-Sim uArch: Shader 1 finished CTA #1 (3528,0), 2 CTAs running
GPGPU-Sim uArch: core:  1, cta: 1 initialized @(3529,0)
GPGPU-Sim uArch: Shader 2 finished CTA #0 (3531,0), 2 CTAs running
GPGPU-Sim uArch: core:  2, cta: 0 initialized @(3532,0)
GPGPU-Sim uArch: Shader 5 finished CTA #0 (3534,0), 2 CTAs running
GPGPU-Sim uArch: core:  5, cta: 0 initialized @(3535,0)
GPGPU-Sim uArch: Shader 0 finished CTA #1 (3537,0), 2 CTAs running
GPGPU-Sim uArch: core:  0, cta: 1 initialized @(3538,0)
GPGPU-Sim uArch: Shader 1 finished CTA #2 (3540,0), 2 CTAs running
GPGPU-Sim uArch: core:  1, cta: 2 initialized @(3541,0)
GPGPU-Sim uArch: Shader 3 finished CTA #1 (3650,0), 2 CTAs running
GPGPU-Sim uArch: core:  3, cta: 1 initialized @(3651,0)
GPGPU-Sim uArch: Shader 7 finished CTA #0 (3666,0), 2 CTAs running
GPGPU-Sim uArch: core:  7, cta: 0 initialized @(3667,0)
GPGPU-Sim uArch: Shader 8 finished CTA #0 (3668,0), 2 CTAs running
GPGPU-Sim uArch: core:  8, cta: 0 initialized @(3669,0)
GPGPU-Sim uArch: Shader 10 finished CTA #0 (3670,0), 2 CTAs running
GPGPU-Sim uArch: core: 10, cta: 0 initialized @(3671,0)
GPGPU-Sim uArch: Shader 4 finished CTA #0 (3672,0), 2 CTAs running
GPGPU-Sim uArch: core:  4, cta: 0 initialized @(3673,0)
GPGPU-Sim uArch: Shader 11 finished CTA #0 (3674,0), 2 CTAs running
GPGPU-Sim uArch: core: 11, cta: 0 initialized @(3675,0)
GPGPU-Sim uArch: Shader 2 finished CTA #1 (3676,0), 2 CTAs running
GPGPU-Sim uArch: core:  2, cta: 1 initialized @(3677,0)
GPGPU-Sim uArch: Shader 6 finished CTA #1 (3678,0), 2 CTAs running
GPGPU-Sim uArch: core:  6, cta: 1 initialized @(3679,0)
GPGPU-Sim uArch: Shader 5 finished CTA #1 (3680,0), 2 CTAs running
GPGPU-Sim uArch: core:  5, cta: 1 initialized @(3681,0)
GPGPU-Sim uArch: Shader 9 finished CTA #0 (3682,0), 2 CTAs running
GPGPU-Sim uArch: core:  9, cta: 0 initialized @(3683,0)
GPGPU-Sim uArch: Shader 3 finished CTA #2 (3684,0), 2 CTAs running
GPGPU-Sim uArch: core:  3, cta: 2 initialized @(3685,0)
GPGPU-Sim uArch: Shader 6 finished CTA #0 (3686,0), 2 CTAs running
GPGPU-Sim uArch: core:  6, cta: 0 initialized @(3687,0)
GPGPU-Sim uArch: Shader 7 finished CTA #1 (3688,0), 2 CTAs running
GPGPU-Sim uArch: core:  7, cta: 1 initialized @(3689,0)
GPGPU-Sim uArch: Shader 2 finished CTA #2 (3695,0), 2 CTAs running
GPGPU-Sim uArch: core:  2, cta: 2 initialized @(3696,0)
GPGPU-Sim uArch: Shader 9 finished CTA #1 (3788,0), 2 CTAs running
GPGPU-Sim uArch: core:  9, cta: 1 initialized @(3789,0)
GPGPU-Sim uArch: Shader 10 finished CTA #1 (3790,0), 2 CTAs running
GPGPU-Sim uArch: core: 10, cta: 1 initialized @(3791,0)
GPGPU-Sim uArch: Shader 12 finished CTA #0 (3792,0), 2 CTAs running
GPGPU-Sim uArch: core: 12, cta: 0 initialized @(3793,0)
GPGPU-Sim uArch: Shader 13 finished CTA #0 (3794,0), 2 CTAs running
GPGPU-Sim uArch: core: 13, cta: 0 initialized @(3795,0)
GPGPU-Sim uArch: Shader 14 finished CTA #0 (3796,0), 2 CTAs running
GPGPU-Sim uArch: core: 14, cta: 0 initialized @(3797,0)
GPGPU-Sim uArch: Shader 4 finished CTA #1 (3798,0), 2 CTAs running
GPGPU-Sim uArch: core:  4, cta: 1 initialized @(3799,0)
GPGPU-Sim uArch: Shader 8 finished CTA #1 (3800,0), 2 CTAs running
GPGPU-Sim uArch: core:  8, cta: 1 initialized @(3801,0)
GPGPU-Sim uArch: Shader 12 finished CTA #1 (3802,0), 2 CTAs running
GPGPU-Sim uArch: core: 12, cta: 1 initialized @(3803,0)
GPGPU-Sim uArch: Shader 13 finished CTA #1 (3804,0), 2 CTAs running
GPGPU-Sim uArch: core: 13, cta: 1 initialized @(3805,0)
GPGPU-Sim uArch: Shader 6 finished CTA #2 (3806,0), 2 CTAs running
GPGPU-Sim uArch: core:  6, cta: 2 initialized @(3807,0)
GPGPU-Sim uArch: Shader 7 finished CTA #2 (3808,0), 2 CTAs running
GPGPU-Sim uArch: core:  7, cta: 2 initialized @(3809,0)
GPGPU-Sim uArch: Shader 8 finished CTA #2 (3810,0), 2 CTAs running
GPGPU-Sim uArch: core:  8, cta: 2 initialized @(3811,0)
GPGPU-Sim uArch: Shader 9 finished CTA #2 (3812,0), 2 CTAs running
GPGPU-Sim uArch: core:  9, cta: 2 initialized @(3813,0)
GPGPU-Sim uArch: Shader 10 finished CTA #2 (3814,0), 2 CTAs running
GPGPU-Sim uArch: core: 10, cta: 2 initialized @(3815,0)
GPGPU-Sim uArch: Shader 11 finished CTA #1 (3816,0), 2 CTAs running
GPGPU-Sim uArch: core: 11, cta: 1 initialized @(3817,0)
GPGPU-Sim uArch: Shader 12 finished CTA #2 (3818,0), 2 CTAs running
GPGPU-Sim uArch: core: 12, cta: 2 initialized @(3819,0)
GPGPU-Sim uArch: Shader 14 finished CTA #1 (3820,0), 2 CTAs running
GPGPU-Sim uArch: core: 14, cta: 1 initialized @(3821,0)
GPGPU-Sim PTX: 700000 instructions simulated : ctaid=(169,0,0) tid=(43,0,0)
GPGPU-Sim uArch: Shader 11 finished CTA #2 (3822,0), 2 CTAs running
GPGPU-Sim uArch: core: 11, cta: 2 initialized @(3823,0)
GPGPU-Sim uArch: Shader 4 finished CTA #2 (3852,0), 2 CTAs running
GPGPU-Sim uArch: core:  4, cta: 2 initialized @(3853,0)
GPGPU-Sim uArch: Shader 14 finished CTA #2 (3869,0), 2 CTAs running
GPGPU-Sim uArch: core: 14, cta: 2 initialized @(3870,0)
GPGPU-Sim uArch: Shader 5 finished CTA #2 (3872,0), 2 CTAs running
GPGPU-Sim uArch: core:  5, cta: 2 initialized @(3873,0)
GPGPU-Sim uArch: Shader 13 finished CTA #2 (3874,0), 2 CTAs running
GPGPU-Sim uArch: core: 13, cta: 2 initialized @(3875,0)
GPGPU-Sim uArch: Shader 0 finished CTA #2 (3876,0), 2 CTAs running
GPGPU-Sim uArch: core:  0, cta: 2 initialized @(3877,0)
GPGPU-Sim uArch: cycles simulated: 4000  inst.: 769048 (ipc=192.3) sim_rate=59157 (inst/sec) elapsed = 0:0:00:13 / Wed May 13 09:55:54 2015
GPGPU-Sim uArch: Shader 3 finished CTA #0 (4026,0), 2 CTAs running
GPGPU-Sim uArch: core:  3, cta: 0 initialized @(4027,0)
GPGPU-Sim PTX: 800000 instructions simulated : ctaid=(168,0,0) tid=(36,0,0)
GPGPU-Sim uArch: Shader 0 finished CTA #0 (4041,0), 2 CTAs running
GPGPU-Sim uArch: core:  0, cta: 0 initialized @(4042,0)
GPGPU-Sim uArch: Shader 5 finished CTA #0 (4048,0), 2 CTAs running
GPGPU-Sim uArch: core:  5, cta: 0 initialized @(4049,0)
GPGPU-Sim uArch: Shader 2 finished CTA #0 (4051,0), 2 CTAs running
GPGPU-Sim uArch: core:  2, cta: 0 initialized @(4052,0)
GPGPU-Sim uArch: Shader 0 finished CTA #1 (4054,0), 2 CTAs running
GPGPU-Sim uArch: core:  0, cta: 1 initialized @(4055,0)
GPGPU-Sim uArch: Shader 1 finished CTA #1 (4061,0), 2 CTAs running
GPGPU-Sim uArch: core:  1, cta: 1 initialized @(4062,0)
GPGPU-Sim uArch: Shader 1 finished CTA #2 (4074,0), 2 CTAs running
GPGPU-Sim uArch: core:  1, cta: 2 initialized @(4075,0)
GPGPU-Sim uArch: Shader 3 finished CTA #1 (4173,0), 2 CTAs running
GPGPU-Sim uArch: core:  3, cta: 1 initialized @(4174,0)
GPGPU-Sim uArch: Shader 8 finished CTA #0 (4177,0), 2 CTAs running
GPGPU-Sim uArch: core:  8, cta: 0 initialized @(4178,0)
GPGPU-Sim uArch: Shader 10 finished CTA #0 (4185,0), 2 CTAs running
GPGPU-Sim uArch: core: 10, cta: 0 initialized @(4186,0)
GPGPU-Sim uArch: Shader 11 finished CTA #0 (4188,0), 2 CTAs running
GPGPU-Sim uArch: core: 11, cta: 0 initialized @(4189,0)
GPGPU-Sim uArch: Shader 7 finished CTA #0 (4191,0), 2 CTAs running
GPGPU-Sim uArch: core:  7, cta: 0 initialized @(4192,0)
GPGPU-Sim uArch: Shader 9 finished CTA #0 (4194,0), 2 CTAs running
GPGPU-Sim uArch: core:  9, cta: 0 initialized @(4195,0)
GPGPU-Sim uArch: Shader 4 finished CTA #0 (4197,0), 2 CTAs running
GPGPU-Sim uArch: core:  4, cta: 0 initialized @(4198,0)
GPGPU-Sim uArch: Shader 5 finished CTA #1 (4200,0), 2 CTAs running
GPGPU-Sim uArch: core:  5, cta: 1 initialized @(4201,0)
GPGPU-Sim uArch: Shader 6 finished CTA #1 (4203,0), 2 CTAs running
GPGPU-Sim uArch: core:  6, cta: 1 initialized @(4204,0)
GPGPU-Sim uArch: Shader 2 finished CTA #1 (4208,0), 2 CTAs running
GPGPU-Sim uArch: core:  2, cta: 1 initialized @(4209,0)
GPGPU-Sim uArch: Shader 3 finished CTA #2 (4211,0), 2 CTAs running
GPGPU-Sim uArch: core:  3, cta: 2 initialized @(4212,0)
GPGPU-Sim uArch: Shader 6 finished CTA #0 (4214,0), 2 CTAs running
GPGPU-Sim uArch: core:  6, cta: 0 initialized @(4215,0)
GPGPU-Sim uArch: Shader 7 finished CTA #1 (4217,0), 2 CTAs running
GPGPU-Sim uArch: core:  7, cta: 1 initialized @(4218,0)
GPGPU-Sim uArch: Shader 2 finished CTA #2 (4223,0), 2 CTAs running
GPGPU-Sim uArch: core:  2, cta: 2 initialized @(4224,0)
GPGPU-Sim uArch: Shader 9 finished CTA #1 (4309,0), 2 CTAs running
GPGPU-Sim uArch: core:  9, cta: 1 initialized @(4310,0)
GPGPU-Sim uArch: Shader 10 finished CTA #1 (4312,0), 2 CTAs running
GPGPU-Sim uArch: core: 10, cta: 1 initialized @(4313,0)
GPGPU-Sim uArch: Shader 14 finished CTA #0 (4315,0), 2 CTAs running
GPGPU-Sim uArch: core: 14, cta: 0 initialized @(4316,0)
GPGPU-Sim uArch: Shader 12 finished CTA #0 (4318,0), 2 CTAs running
GPGPU-Sim uArch: core: 12, cta: 0 initialized @(4319,0)
GPGPU-Sim uArch: Shader 13 finished CTA #0 (4321,0), 2 CTAs running
GPGPU-Sim uArch: core: 13, cta: 0 initialized @(4322,0)
GPGPU-Sim uArch: Shader 4 finished CTA #1 (4324,0), 2 CTAs running
GPGPU-Sim uArch: core:  4, cta: 1 initialized @(4325,0)
GPGPU-Sim PTX: 900000 instructions simulated : ctaid=(198,0,0) tid=(33,0,0)
GPGPU-Sim uArch: Shader 6 finished CTA #2 (4434,0), 2 CTAs running
GPGPU-Sim uArch: core:  6, cta: 2 initialized @(4435,0)
GPGPU-Sim uArch: Shader 11 finished CTA #1 (4450,0), 2 CTAs running
GPGPU-Sim uArch: core: 11, cta: 1 initialized @(4451,0)
GPGPU-Sim uArch: Shader 12 finished CTA #1 (4452,0), 2 CTAs running
GPGPU-Sim uArch: core: 12, cta: 1 initialized @(4453,0)
GPGPU-Sim uArch: Shader 14 finished CTA #1 (4454,0), 2 CTAs running
GPGPU-Sim uArch: core: 14, cta: 1 initialized @(4455,0)
GPGPU-Sim uArch: Shader 8 finished CTA #1 (4456,0), 2 CTAs running
GPGPU-Sim uArch: core:  8, cta: 1 initialized @(4457,0)
GPGPU-Sim uArch: Shader 7 finished CTA #2 (4458,0), 2 CTAs running
GPGPU-Sim uArch: core:  7, cta: 2 initialized @(4459,0)
GPGPU-Sim uArch: Shader 9 finished CTA #2 (4460,0), 2 CTAs running
GPGPU-Sim uArch: core:  9, cta: 2 initialized @(4461,0)
GPGPU-Sim uArch: Shader 10 finished CTA #2 (4462,0), 2 CTAs running
GPGPU-Sim uArch: core: 10, cta: 2 initialized @(4463,0)
GPGPU-Sim uArch: Shader 13 finished CTA #1 (4464,0), 2 CTAs running
GPGPU-Sim uArch: core: 13, cta: 1 initialized @(4465,0)
GPGPU-Sim uArch: Shader 11 finished CTA #2 (4466,0), 2 CTAs running
GPGPU-Sim uArch: core: 11, cta: 2 initialized @(4467,0)
GPGPU-Sim uArch: Shader 12 finished CTA #2 (4468,0), 2 CTAs running
GPGPU-Sim uArch: core: 12, cta: 2 initialized @(4469,0)
GPGPU-Sim uArch: Shader 8 finished CTA #2 (4470,0), 2 CTAs running
GPGPU-Sim uArch: core:  8, cta: 2 initialized @(4471,0)
GPGPU-Sim uArch: Shader 4 finished CTA #2 (4472,0), 2 CTAs running
GPGPU-Sim uArch: core:  4, cta: 2 initialized @(4473,0)
GPGPU-Sim uArch: Shader 5 finished CTA #2 (4474,0), 2 CTAs running
GPGPU-Sim uArch: core:  5, cta: 2 initialized @(4475,0)
GPGPU-Sim uArch: Shader 0 finished CTA #2 (4476,0), 2 CTAs running
GPGPU-Sim uArch: core:  0, cta: 2 initialized @(4477,0)
GPGPU-Sim uArch: Shader 13 finished CTA #2 (4478,0), 2 CTAs running
GPGPU-Sim uArch: core: 13, cta: 2 initialized @(4479,0)
GPGPU-Sim uArch: Shader 14 finished CTA #2 (4480,0), 2 CTAs running
GPGPU-Sim uArch: core: 14, cta: 2 initialized @(4481,0)
GPGPU-Sim uArch: cycles simulated: 4500  inst.: 938899 (ipc=208.6) sim_rate=62593 (inst/sec) elapsed = 0:0:00:15 / Wed May 13 09:55:56 2015
GPGPU-Sim uArch: Shader 3 finished CTA #0 (4577,0), 2 CTAs running
GPGPU-Sim uArch: core:  3, cta: 0 initialized @(4578,0)
GPGPU-Sim uArch: Shader 0 finished CTA #0 (4579,0), 2 CTAs running
GPGPU-Sim uArch: core:  0, cta: 0 initialized @(4580,0)
GPGPU-Sim uArch: Shader 2 finished CTA #0 (4581,0), 2 CTAs running
GPGPU-Sim uArch: core:  2, cta: 0 initialized @(4582,0)
GPGPU-Sim uArch: Shader 5 finished CTA #0 (4583,0), 2 CTAs running
GPGPU-Sim uArch: core:  5, cta: 0 initialized @(4584,0)
GPGPU-Sim uArch: Shader 0 finished CTA #1 (4585,0), 2 CTAs running
GPGPU-Sim uArch: core:  0, cta: 1 initialized @(4586,0)
GPGPU-Sim PTX: 1000000 instructions simulated : ctaid=(225,0,0) tid=(48,0,0)
GPGPU-Sim uArch: Shader 1 finished CTA #1 (4593,0), 2 CTAs running
GPGPU-Sim uArch: core:  1, cta: 1 initialized @(4594,0)
GPGPU-Sim uArch: Shader 1 finished CTA #2 (4605,0), 2 CTAs running
GPGPU-Sim uArch: core:  1, cta: 2 initialized @(4606,0)
GPGPU-Sim uArch: Shader 8 finished CTA #0 (4686,0), 2 CTAs running
GPGPU-Sim uArch: core:  8, cta: 0 initialized @(4687,0)
GPGPU-Sim uArch: Shader 3 finished CTA #1 (4695,0), 2 CTAs running
GPGPU-Sim uArch: core:  3, cta: 1 initialized @(4696,0)
GPGPU-Sim uArch: Shader 11 finished CTA #0 (4699,0), 2 CTAs running
GPGPU-Sim uArch: core: 11, cta: 0 initialized @(4700,0)
GPGPU-Sim uArch: Shader 10 finished CTA #0 (4702,0), 2 CTAs running
GPGPU-Sim uArch: core: 10, cta: 0 initialized @(4703,0)
GPGPU-Sim uArch: Shader 9 finished CTA #0 (4710,0), 2 CTAs running
GPGPU-Sim uArch: core:  9, cta: 0 initialized @(4711,0)
GPGPU-Sim uArch: Shader 4 finished CTA #0 (4713,0), 2 CTAs running
GPGPU-Sim uArch: core:  4, cta: 0 initialized @(4714,0)
GPGPU-Sim uArch: Shader 7 finished CTA #0 (4716,0), 2 CTAs running
GPGPU-Sim uArch: core:  7, cta: 0 initialized @(4717,0)
GPGPU-Sim uArch: Shader 5 finished CTA #1 (4719,0), 2 CTAs running
GPGPU-Sim uArch: core:  5, cta: 1 initialized @(4720,0)
GPGPU-Sim uArch: Shader 6 finished CTA #1 (4834,0), 2 CTAs running
GPGPU-Sim uArch: core:  6, cta: 1 initialized @(4835,0)
GPGPU-Sim uArch: Shader 6 finished CTA #0 (4850,0), 2 CTAs running
GPGPU-Sim uArch: core:  6, cta: 0 initialized @(4851,0)
GPGPU-Sim uArch: Shader 2 finished CTA #2 (4852,0), 2 CTAs running
GPGPU-Sim uArch: core:  2, cta: 2 initialized @(4853,0)
GPGPU-Sim uArch: Shader 9 finished CTA #1 (4854,0), 2 CTAs running
GPGPU-Sim uArch: core:  9, cta: 1 initialized @(4855,0)
GPGPU-Sim uArch: Shader 3 finished CTA #2 (4856,0), 2 CTAs running
GPGPU-Sim uArch: core:  3, cta: 2 initialized @(4857,0)
GPGPU-Sim uArch: Shader 10 finished CTA #1 (4858,0), 2 CTAs running
GPGPU-Sim uArch: core: 10, cta: 1 initialized @(4859,0)
GPGPU-Sim uArch: Shader 12 finished CTA #0 (4860,0), 2 CTAs running
GPGPU-Sim uArch: core: 12, cta: 0 initialized @(4861,0)
GPGPU-Sim uArch: Shader 14 finished CTA #0 (4862,0), 2 CTAs running
GPGPU-Sim uArch: core: 14, cta: 0 initialized @(4863,0)
GPGPU-Sim uArch: Shader 2 finished CTA #1 (4864,0), 2 CTAs running
GPGPU-Sim uArch: core:  2, cta: 1 initialized @(4865,0)
GPGPU-Sim uArch: Shader 13 finished CTA #0 (4866,0), 2 CTAs running
GPGPU-Sim uArch: core: 13, cta: 0 initialized @(4867,0)
GPGPU-Sim PTX: 1100000 instructions simulated : ctaid=(220,0,0) tid=(16,0,0)
GPGPU-Sim uArch: Shader 4 finished CTA #1 (4868,0), 2 CTAs running
GPGPU-Sim uArch: core:  4, cta: 1 initialized @(4869,0)
GPGPU-Sim uArch: Shader 7 finished CTA #1 (4870,0), 2 CTAs running
GPGPU-Sim uArch: core:  7, cta: 1 initialized @(4871,0)
GPGPU-Sim uArch: Shader 6 finished CTA #2 (4947,0), 2 CTAs running
GPGPU-Sim uArch: core:  6, cta: 2 initialized @(4948,0)
GPGPU-Sim uArch: Shader 14 finished CTA #1 (4974,0), 2 CTAs running
GPGPU-Sim uArch: core: 14, cta: 1 initialized @(4975,0)
GPGPU-Sim uArch: Shader 11 finished CTA #1 (4977,0), 2 CTAs running
GPGPU-Sim uArch: core: 11, cta: 1 initialized @(4978,0)
GPGPU-Sim uArch: Shader 12 finished CTA #1 (4980,0), 2 CTAs running
GPGPU-Sim uArch: core: 12, cta: 1 initialized @(4981,0)
GPGPU-Sim uArch: Shader 7 finished CTA #2 (4983,0), 2 CTAs running
GPGPU-Sim uArch: core:  7, cta: 2 initialized @(4984,0)
GPGPU-Sim uArch: Shader 8 finished CTA #1 (4986,0), 2 CTAs running
GPGPU-Sim uArch: core:  8, cta: 1 initialized @(4987,0)
GPGPU-Sim uArch: Shader 9 finished CTA #2 (4989,0), 2 CTAs running
GPGPU-Sim uArch: core:  9, cta: 2 initialized @(4990,0)
GPGPU-Sim uArch: Shader 10 finished CTA #2 (4992,0), 2 CTAs running
GPGPU-Sim uArch: core: 10, cta: 2 initialized @(4993,0)
GPGPU-Sim uArch: Shader 13 finished CTA #1 (4995,0), 2 CTAs running
GPGPU-Sim uArch: Shader 0 finished CTA #2 (4998,0), 2 CTAs running
GPGPU-Sim uArch: cycles simulated: 5000  inst.: 1121106 (ipc=224.2) sim_rate=62283 (inst/sec) elapsed = 0:0:00:18 / Wed May 13 09:55:59 2015
GPGPU-Sim uArch: Shader 4 finished CTA #2 (5001,0), 2 CTAs running
GPGPU-Sim uArch: Shader 5 finished CTA #2 (5004,0), 2 CTAs running
GPGPU-Sim uArch: Shader 8 finished CTA #2 (5008,0), 2 CTAs running
GPGPU-Sim uArch: Shader 11 finished CTA #2 (5010,0), 2 CTAs running
GPGPU-Sim uArch: Shader 12 finished CTA #2 (5013,0), 2 CTAs running
GPGPU-Sim uArch: Shader 13 finished CTA #2 (5016,0), 1 CTAs running
GPGPU-Sim uArch: Shader 14 finished CTA #2 (5019,0), 2 CTAs running
GPGPU-Sim uArch: Shader 2 finished CTA #0 (5091,0), 2 CTAs running
GPGPU-Sim uArch: Shader 3 finished CTA #0 (5096,0), 2 CTAs running
GPGPU-Sim uArch: Shader 0 finished CTA #0 (5105,0), 1 CTAs running
GPGPU-Sim PTX: 1200000 instructions simulated : ctaid=(238,0,0) tid=(70,0,0)
GPGPU-Sim uArch: Shader 5 finished CTA #0 (5209,0), 1 CTAs running
GPGPU-Sim uArch: Shader 3 finished CTA #1 (5225,0), 1 CTAs running
GPGPU-Sim uArch: Shader 8 finished CTA #0 (5227,0), 1 CTAs running
GPGPU-Sim uArch: Shader 10 finished CTA #0 (5229,0), 2 CTAs running
GPGPU-Sim uArch: Shader 0 finished CTA #1 (5231,0), 0 CTAs running
GPGPU-Sim uArch: Shader 0 empty (release kernel 1 '_Z24solve_nqueen_cuda_kerneliiPjS_S_S_i').
GPGPU-Sim uArch: Shader 11 finished CTA #0 (5233,0), 1 CTAs running
GPGPU-Sim uArch: Shader 4 finished CTA #0 (5235,0), 1 CTAs running
GPGPU-Sim uArch: Shader 1 finished CTA #1 (5237,0), 2 CTAs running
GPGPU-Sim uArch: Shader 9 finished CTA #0 (5239,0), 2 CTAs running
GPGPU-Sim uArch: Shader 1 finished CTA #2 (5241,0), 1 CTAs running
GPGPU-Sim uArch: Shader 7 finished CTA #0 (5243,0), 2 CTAs running
GPGPU-Sim uArch: Shader 5 finished CTA #1 (5245,0), 0 CTAs running
GPGPU-Sim uArch: Shader 5 empty (release kernel 1 '_Z24solve_nqueen_cuda_kerneliiPjS_S_S_i').
GPGPU-Sim uArch: Shader 6 finished CTA #1 (5357,0), 2 CTAs running
GPGPU-Sim uArch: Shader 9 finished CTA #1 (5370,0), 1 CTAs running
GPGPU-Sim uArch: Shader 13 finished CTA #0 (5373,0), 0 CTAs running
GPGPU-Sim uArch: Shader 13 empty (release kernel 1 '_Z24solve_nqueen_cuda_kerneliiPjS_S_S_i').
GPGPU-Sim uArch: Shader 14 finished CTA #0 (5376,0), 1 CTAs running
GPGPU-Sim uArch: Shader 2 finished CTA #2 (5379,0), 1 CTAs running
GPGPU-Sim uArch: Shader 3 finished CTA #2 (5382,0), 0 CTAs running
GPGPU-Sim uArch: Shader 3 empty (release kernel 1 '_Z24solve_nqueen_cuda_kerneliiPjS_S_S_i').
GPGPU-Sim uArch: Shader 4 finished CTA #1 (5385,0), 0 CTAs running
GPGPU-Sim uArch: Shader 4 empty (release kernel 1 '_Z24solve_nqueen_cuda_kerneliiPjS_S_S_i').
GPGPU-Sim uArch: Shader 6 finished CTA #0 (5388,0), 1 CTAs running
GPGPU-Sim uArch: Shader 7 finished CTA #1 (5391,0), 1 CTAs running
GPGPU-Sim uArch: Shader 10 finished CTA #1 (5394,0), 1 CTAs running
GPGPU-Sim uArch: Shader 12 finished CTA #0 (5397,0), 1 CTAs running
GPGPU-Sim uArch: Shader 2 finished CTA #1 (5400,0), 0 CTAs running
GPGPU-Sim uArch: Shader 2 empty (release kernel 1 '_Z24solve_nqueen_cuda_kerneliiPjS_S_S_i').
GPGPU-Sim uArch: Shader 6 finished CTA #2 (5465,0), 0 CTAs running
GPGPU-Sim uArch: Shader 6 empty (release kernel 1 '_Z24solve_nqueen_cuda_kerneliiPjS_S_S_i').
GPGPU-Sim uArch: Shader 11 finished CTA #1 (5487,0), 0 CTAs running
GPGPU-Sim uArch: Shader 11 empty (release kernel 1 '_Z24solve_nqueen_cuda_kerneliiPjS_S_S_i').
GPGPU-Sim uArch: Shader 12 finished CTA #1 (5490,0), 0 CTAs running
GPGPU-Sim uArch: Shader 12 empty (release kernel 1 '_Z24solve_nqueen_cuda_kerneliiPjS_S_S_i').
GPGPU-Sim uArch: Shader 14 finished CTA #1 (5493,0), 0 CTAs running
GPGPU-Sim uArch: Shader 14 empty (release kernel 1 '_Z24solve_nqueen_cuda_kerneliiPjS_S_S_i').
GPGPU-Sim uArch: Shader 8 finished CTA #1 (5496,0), 0 CTAs running
GPGPU-Sim uArch: Shader 8 empty (release kernel 1 '_Z24solve_nqueen_cuda_kerneliiPjS_S_S_i').
GPGPU-Sim uArch: cycles simulated: 5500  inst.: 1191206 (ipc=216.6) sim_rate=62695 (inst/sec) elapsed = 0:0:00:19 / Wed May 13 09:56:00 2015
GPGPU-Sim uArch: Shader 7 finished CTA #2 (5500,0), 0 CTAs running
GPGPU-Sim uArch: Shader 7 empty (release kernel 1 '_Z24solve_nqueen_cuda_kerneliiPjS_S_S_i').
GPGPU-Sim uArch: Shader 10 finished CTA #2 (5507,0), 0 CTAs running
GPGPU-Sim uArch: Shader 10 empty (release kernel 1 '_Z24solve_nqueen_cuda_kerneliiPjS_S_S_i').
GPGPU-Sim uArch: Shader 9 finished CTA #2 (5510,0), 0 CTAs running
GPGPU-Sim uArch: Shader 9 empty (release kernel 1 '_Z24solve_nqueen_cuda_kerneliiPjS_S_S_i').
GPGPU-Sim uArch: cycles simulated: 7000  inst.: 1197151 (ipc=171.0) sim_rate=59857 (inst/sec) elapsed = 0:0:00:20 / Wed May 13 09:56:01 2015
GPGPU-Sim uArch: cycles simulated: 11000  inst.: 1212277 (ipc=110.2) sim_rate=57727 (inst/sec) elapsed = 0:0:00:21 / Wed May 13 09:56:02 2015
GPGPU-Sim uArch: cycles simulated: 14500  inst.: 1225873 (ipc=84.5) sim_rate=55721 (inst/sec) elapsed = 0:0:00:22 / Wed May 13 09:56:03 2015
GPGPU-Sim uArch: cycles simulated: 18000  inst.: 1239274 (ipc=68.8) sim_rate=53881 (inst/sec) elapsed = 0:0:00:23 / Wed May 13 09:56:04 2015
GPGPU-Sim uArch: cycles simulated: 21500  inst.: 1253033 (ipc=58.3) sim_rate=52209 (inst/sec) elapsed = 0:0:00:24 / Wed May 13 09:56:05 2015
GPGPU-Sim uArch: cycles simulated: 25000  inst.: 1266266 (ipc=50.7) sim_rate=50650 (inst/sec) elapsed = 0:0:00:25 / Wed May 13 09:56:06 2015
GPGPU-Sim PTX: 1300000 instructions simulated : ctaid=(0,0,0) tid=(21,0,0)
GPGPU-Sim uArch: cycles simulated: 29000  inst.: 1282001 (ipc=44.2) sim_rate=49307 (inst/sec) elapsed = 0:0:00:26 / Wed May 13 09:56:07 2015
GPGPU-Sim uArch: cycles simulated: 32500  inst.: 1295550 (ipc=39.9) sim_rate=47983 (inst/sec) elapsed = 0:0:00:27 / Wed May 13 09:56:08 2015
GPGPU-Sim uArch: cycles simulated: 36000  inst.: 1308863 (ipc=36.4) sim_rate=46745 (inst/sec) elapsed = 0:0:00:28 / Wed May 13 09:56:09 2015
GPGPU-Sim uArch: cycles simulated: 39500  inst.: 1322290 (ipc=33.5) sim_rate=45596 (inst/sec) elapsed = 0:0:00:29 / Wed May 13 09:56:10 2015
GPGPU-Sim uArch: cycles simulated: 43000  inst.: 1336085 (ipc=31.1) sim_rate=44536 (inst/sec) elapsed = 0:0:00:30 / Wed May 13 09:56:11 2015
GPGPU-Sim uArch: cycles simulated: 46500  inst.: 1349413 (ipc=29.0) sim_rate=43529 (inst/sec) elapsed = 0:0:00:31 / Wed May 13 09:56:12 2015
GPGPU-Sim uArch: cycles simulated: 50500  inst.: 1364848 (ipc=27.0) sim_rate=42651 (inst/sec) elapsed = 0:0:00:32 / Wed May 13 09:56:13 2015
GPGPU-Sim PTX: 1400000 instructions simulated : ctaid=(0,0,0) tid=(4,0,0)
GPGPU-Sim uArch: cycles simulated: 53500  inst.: 1376349 (ipc=25.7) sim_rate=41707 (inst/sec) elapsed = 0:0:00:33 / Wed May 13 09:56:14 2015
GPGPU-Sim uArch: cycles simulated: 56000  inst.: 1386029 (ipc=24.8) sim_rate=40765 (inst/sec) elapsed = 0:0:00:34 / Wed May 13 09:56:15 2015
GPGPU-Sim uArch: cycles simulated: 58500  inst.: 1395768 (ipc=23.9) sim_rate=39879 (inst/sec) elapsed = 0:0:00:35 / Wed May 13 09:56:16 2015
GPGPU-Sim uArch: cycles simulated: 61000  inst.: 1405316 (ipc=23.0) sim_rate=39036 (inst/sec) elapsed = 0:0:00:36 / Wed May 13 09:56:17 2015
GPGPU-Sim uArch: cycles simulated: 63500  inst.: 1414701 (ipc=22.3) sim_rate=38235 (inst/sec) elapsed = 0:0:00:37 / Wed May 13 09:56:18 2015
GPGPU-Sim uArch: cycles simulated: 66000  inst.: 1424625 (ipc=21.6) sim_rate=37490 (inst/sec) elapsed = 0:0:00:38 / Wed May 13 09:56:19 2015
GPGPU-Sim uArch: cycles simulated: 68000  inst.: 1432622 (ipc=21.1) sim_rate=36733 (inst/sec) elapsed = 0:0:00:39 / Wed May 13 09:56:20 2015
GPGPU-Sim uArch: cycles simulated: 70500  inst.: 1442192 (ipc=20.5) sim_rate=36054 (inst/sec) elapsed = 0:0:00:40 / Wed May 13 09:56:21 2015
GPGPU-Sim uArch: cycles simulated: 73000  inst.: 1451697 (ipc=19.9) sim_rate=35407 (inst/sec) elapsed = 0:0:00:41 / Wed May 13 09:56:22 2015
GPGPU-Sim uArch: cycles simulated: 75500  inst.: 1461017 (ipc=19.4) sim_rate=34786 (inst/sec) elapsed = 0:0:00:42 / Wed May 13 09:56:23 2015
GPGPU-Sim PTX: 1500000 instructions simulated : ctaid=(0,0,0) tid=(24,0,0)
GPGPU-Sim uArch: cycles simulated: 78000  inst.: 1470972 (ipc=18.9) sim_rate=34208 (inst/sec) elapsed = 0:0:00:43 / Wed May 13 09:56:24 2015
GPGPU-Sim uArch: cycles simulated: 80500  inst.: 1480605 (ipc=18.4) sim_rate=33650 (inst/sec) elapsed = 0:0:00:44 / Wed May 13 09:56:25 2015
GPGPU-Sim uArch: cycles simulated: 83000  inst.: 1490226 (ipc=18.0) sim_rate=33116 (inst/sec) elapsed = 0:0:00:45 / Wed May 13 09:56:26 2015
GPGPU-Sim uArch: cycles simulated: 85500  inst.: 1499989 (ipc=17.5) sim_rate=32608 (inst/sec) elapsed = 0:0:00:46 / Wed May 13 09:56:27 2015
GPGPU-Sim uArch: cycles simulated: 89000  inst.: 1513508 (ipc=17.0) sim_rate=32202 (inst/sec) elapsed = 0:0:00:47 / Wed May 13 09:56:28 2015
GPGPU-Sim uArch: cycles simulated: 92500  inst.: 1527038 (ipc=16.5) sim_rate=31813 (inst/sec) elapsed = 0:0:00:48 / Wed May 13 09:56:29 2015
GPGPU-Sim uArch: cycles simulated: 96000  inst.: 1540159 (ipc=16.0) sim_rate=31431 (inst/sec) elapsed = 0:0:00:49 / Wed May 13 09:56:30 2015
GPGPU-Sim uArch: cycles simulated: 99500  inst.: 1553937 (ipc=15.6) sim_rate=31078 (inst/sec) elapsed = 0:0:00:50 / Wed May 13 09:56:31 2015
GPGPU-Sim PTX: 1600000 instructions simulated : ctaid=(0,0,0) tid=(22,0,0)
GPGPU-Sim uArch: cycles simulated: 103000  inst.: 1567255 (ipc=15.2) sim_rate=30730 (inst/sec) elapsed = 0:0:00:51 / Wed May 13 09:56:32 2015
GPGPU-Sim uArch: cycles simulated: 107000  inst.: 1582918 (ipc=14.8) sim_rate=30440 (inst/sec) elapsed = 0:0:00:52 / Wed May 13 09:56:33 2015
GPGPU-Sim uArch: cycles simulated: 110500  inst.: 1596134 (ipc=14.4) sim_rate=30115 (inst/sec) elapsed = 0:0:00:53 / Wed May 13 09:56:34 2015
GPGPU-Sim uArch: cycles simulated: 114000  inst.: 1609623 (ipc=14.1) sim_rate=29807 (inst/sec) elapsed = 0:0:00:54 / Wed May 13 09:56:35 2015
GPGPU-Sim uArch: cycles simulated: 117500  inst.: 1623209 (ipc=13.8) sim_rate=29512 (inst/sec) elapsed = 0:0:00:55 / Wed May 13 09:56:36 2015
GPGPU-Sim uArch: cycles simulated: 121000  inst.: 1636796 (ipc=13.5) sim_rate=29228 (inst/sec) elapsed = 0:0:00:56 / Wed May 13 09:56:37 2015
GPGPU-Sim uArch: cycles simulated: 124500  inst.: 1650578 (ipc=13.3) sim_rate=28957 (inst/sec) elapsed = 0:0:00:57 / Wed May 13 09:56:38 2015
GPGPU-Sim PTX: 1700000 instructions simulated : ctaid=(0,0,0) tid=(5,0,0)
GPGPU-Sim uArch: cycles simulated: 128000  inst.: 1663810 (ipc=13.0) sim_rate=28686 (inst/sec) elapsed = 0:0:00:58 / Wed May 13 09:56:39 2015
GPGPU-Sim uArch: cycles simulated: 131500  inst.: 1677481 (ipc=12.8) sim_rate=28431 (inst/sec) elapsed = 0:0:00:59 / Wed May 13 09:56:40 2015
GPGPU-Sim uArch: cycles simulated: 135500  inst.: 1692918 (ipc=12.5) sim_rate=28215 (inst/sec) elapsed = 0:0:01:00 / Wed May 13 09:56:41 2015
GPGPU-Sim uArch: cycles simulated: 139000  inst.: 1706158 (ipc=12.3) sim_rate=27969 (inst/sec) elapsed = 0:0:01:01 / Wed May 13 09:56:42 2015
GPGPU-Sim uArch: cycles simulated: 142500  inst.: 1719768 (ipc=12.1) sim_rate=27738 (inst/sec) elapsed = 0:0:01:02 / Wed May 13 09:56:43 2015
GPGPU-Sim uArch: cycles simulated: 146000  inst.: 1733150 (ipc=11.9) sim_rate=27510 (inst/sec) elapsed = 0:0:01:03 / Wed May 13 09:56:44 2015
GPGPU-Sim uArch: cycles simulated: 149500  inst.: 1746629 (ipc=11.7) sim_rate=27291 (inst/sec) elapsed = 0:0:01:04 / Wed May 13 09:56:45 2015
GPGPU-Sim PTX: 1800000 instructions simulated : ctaid=(0,0,0) tid=(26,0,0)
GPGPU-Sim uArch: cycles simulated: 153500  inst.: 1762103 (ipc=11.5) sim_rate=27109 (inst/sec) elapsed = 0:0:01:05 / Wed May 13 09:56:46 2015
GPGPU-Sim uArch: cycles simulated: 157000  inst.: 1775639 (ipc=11.3) sim_rate=26903 (inst/sec) elapsed = 0:0:01:06 / Wed May 13 09:56:47 2015
GPGPU-Sim uArch: cycles simulated: 160500  inst.: 1789311 (ipc=11.1) sim_rate=26706 (inst/sec) elapsed = 0:0:01:07 / Wed May 13 09:56:48 2015
GPGPU-Sim uArch: cycles simulated: 164000  inst.: 1802849 (ipc=11.0) sim_rate=26512 (inst/sec) elapsed = 0:0:01:08 / Wed May 13 09:56:49 2015
GPGPU-Sim uArch: cycles simulated: 167500  inst.: 1816348 (ipc=10.8) sim_rate=26323 (inst/sec) elapsed = 0:0:01:09 / Wed May 13 09:56:50 2015
GPGPU-Sim uArch: cycles simulated: 171000  inst.: 1829764 (ipc=10.7) sim_rate=26139 (inst/sec) elapsed = 0:0:01:10 / Wed May 13 09:56:51 2015
GPGPU-Sim uArch: cycles simulated: 175000  inst.: 1845088 (ipc=10.5) sim_rate=25987 (inst/sec) elapsed = 0:0:01:11 / Wed May 13 09:56:52 2015
GPGPU-Sim PTX: 1900000 instructions simulated : ctaid=(0,0,0) tid=(20,0,0)
GPGPU-Sim uArch: cycles simulated: 178500  inst.: 1858603 (ipc=10.4) sim_rate=25813 (inst/sec) elapsed = 0:0:01:12 / Wed May 13 09:56:53 2015
GPGPU-Sim uArch: cycles simulated: 182000  inst.: 1871881 (ipc=10.3) sim_rate=25642 (inst/sec) elapsed = 0:0:01:13 / Wed May 13 09:56:54 2015
GPGPU-Sim uArch: cycles simulated: 185500  inst.: 1885626 (ipc=10.2) sim_rate=25481 (inst/sec) elapsed = 0:0:01:14 / Wed May 13 09:56:55 2015
GPGPU-Sim uArch: cycles simulated: 189000  inst.: 1899120 (ipc=10.0) sim_rate=25321 (inst/sec) elapsed = 0:0:01:15 / Wed May 13 09:56:56 2015
GPGPU-Sim uArch: cycles simulated: 193000  inst.: 1914479 (ipc= 9.9) sim_rate=25190 (inst/sec) elapsed = 0:0:01:16 / Wed May 13 09:56:57 2015
GPGPU-Sim uArch: cycles simulated: 196500  inst.: 1928261 (ipc= 9.8) sim_rate=25042 (inst/sec) elapsed = 0:0:01:17 / Wed May 13 09:56:58 2015
GPGPU-Sim uArch: cycles simulated: 200000  inst.: 1941503 (ipc= 9.7) sim_rate=24891 (inst/sec) elapsed = 0:0:01:18 / Wed May 13 09:56:59 2015
GPGPU-Sim PTX: 2000000 instructions simulated : ctaid=(0,0,0) tid=(23,0,0)
GPGPU-Sim uArch: cycles simulated: 203500  inst.: 1954788 (ipc= 9.6) sim_rate=24744 (inst/sec) elapsed = 0:0:01:19 / Wed May 13 09:57:00 2015
GPGPU-Sim uArch: cycles simulated: 207000  inst.: 1968455 (ipc= 9.5) sim_rate=24605 (inst/sec) elapsed = 0:0:01:20 / Wed May 13 09:57:01 2015
GPGPU-Sim uArch: cycles simulated: 211000  inst.: 1983939 (ipc= 9.4) sim_rate=24493 (inst/sec) elapsed = 0:0:01:21 / Wed May 13 09:57:02 2015
GPGPU-Sim uArch: cycles simulated: 214500  inst.: 1997210 (ipc= 9.3) sim_rate=24356 (inst/sec) elapsed = 0:0:01:22 / Wed May 13 09:57:03 2015
GPGPU-Sim uArch: cycles simulated: 218000  inst.: 2010914 (ipc= 9.2) sim_rate=24227 (inst/sec) elapsed = 0:0:01:23 / Wed May 13 09:57:04 2015
GPGPU-Sim uArch: cycles simulated: 221500  inst.: 2024371 (ipc= 9.1) sim_rate=24099 (inst/sec) elapsed = 0:0:01:24 / Wed May 13 09:57:05 2015
GPGPU-Sim uArch: cycles simulated: 225500  inst.: 2039735 (ipc= 9.0) sim_rate=23996 (inst/sec) elapsed = 0:0:01:25 / Wed May 13 09:57:06 2015
GPGPU-Sim PTX: 2100000 instructions simulated : ctaid=(0,0,0) tid=(24,0,0)
GPGPU-Sim uArch: cycles simulated: 229000  inst.: 2053185 (ipc= 9.0) sim_rate=23874 (inst/sec) elapsed = 0:0:01:26 / Wed May 13 09:57:07 2015
GPGPU-Sim uArch: cycles simulated: 232500  inst.: 2066650 (ipc= 8.9) sim_rate=23754 (inst/sec) elapsed = 0:0:01:27 / Wed May 13 09:57:08 2015
GPGPU-Sim uArch: cycles simulated: 236000  inst.: 2080530 (ipc= 8.8) sim_rate=23642 (inst/sec) elapsed = 0:0:01:28 / Wed May 13 09:57:09 2015
GPGPU-Sim uArch: cycles simulated: 239500  inst.: 2093677 (ipc= 8.7) sim_rate=23524 (inst/sec) elapsed = 0:0:01:29 / Wed May 13 09:57:10 2015
GPGPU-Sim uArch: cycles simulated: 243000  inst.: 2107162 (ipc= 8.7) sim_rate=23412 (inst/sec) elapsed = 0:0:01:30 / Wed May 13 09:57:11 2015
GPGPU-Sim uArch: cycles simulated: 246500  inst.: 2120627 (ipc= 8.6) sim_rate=23303 (inst/sec) elapsed = 0:0:01:31 / Wed May 13 09:57:12 2015
GPGPU-Sim uArch: cycles simulated: 250000  inst.: 2133871 (ipc= 8.5) sim_rate=23194 (inst/sec) elapsed = 0:0:01:32 / Wed May 13 09:57:13 2015
GPGPU-Sim PTX: 2200000 instructions simulated : ctaid=(0,0,0) tid=(18,0,0)
GPGPU-Sim uArch: cycles simulated: 253500  inst.: 2147319 (ipc= 8.5) sim_rate=23089 (inst/sec) elapsed = 0:0:01:33 / Wed May 13 09:57:14 2015
GPGPU-Sim uArch: cycles simulated: 257000  inst.: 2160939 (ipc= 8.4) sim_rate=22988 (inst/sec) elapsed = 0:0:01:34 / Wed May 13 09:57:15 2015
GPGPU-Sim uArch: cycles simulated: 260500  inst.: 2174329 (ipc= 8.3) sim_rate=22887 (inst/sec) elapsed = 0:0:01:35 / Wed May 13 09:57:16 2015
GPGPU-Sim uArch: cycles simulated: 264000  inst.: 2188129 (ipc= 8.3) sim_rate=22793 (inst/sec) elapsed = 0:0:01:36 / Wed May 13 09:57:17 2015
GPGPU-Sim uArch: cycles simulated: 267500  inst.: 2201659 (ipc= 8.2) sim_rate=22697 (inst/sec) elapsed = 0:0:01:37 / Wed May 13 09:57:18 2015
GPGPU-Sim uArch: cycles simulated: 271500  inst.: 2216429 (ipc= 8.2) sim_rate=22616 (inst/sec) elapsed = 0:0:01:38 / Wed May 13 09:57:19 2015
GPGPU-Sim uArch: cycles simulated: 275000  inst.: 2230454 (ipc= 8.1) sim_rate=22529 (inst/sec) elapsed = 0:0:01:39 / Wed May 13 09:57:20 2015
GPGPU-Sim PTX: 2300000 instructions simulated : ctaid=(0,0,0) tid=(31,0,0)
GPGPU-Sim uArch: cycles simulated: 278500  inst.: 2243670 (ipc= 8.1) sim_rate=22436 (inst/sec) elapsed = 0:0:01:40 / Wed May 13 09:57:21 2015
GPGPU-Sim uArch: cycles simulated: 282000  inst.: 2257046 (ipc= 8.0) sim_rate=22346 (inst/sec) elapsed = 0:0:01:41 / Wed May 13 09:57:22 2015
GPGPU-Sim uArch: cycles simulated: 285500  inst.: 2270698 (ipc= 8.0) sim_rate=22261 (inst/sec) elapsed = 0:0:01:42 / Wed May 13 09:57:23 2015
GPGPU-Sim uArch: cycles simulated: 289000  inst.: 2284243 (ipc= 7.9) sim_rate=22177 (inst/sec) elapsed = 0:0:01:43 / Wed May 13 09:57:24 2015
GPGPU-Sim uArch: cycles simulated: 292500  inst.: 2297761 (ipc= 7.9) sim_rate=22093 (inst/sec) elapsed = 0:0:01:44 / Wed May 13 09:57:25 2015
GPGPU-Sim uArch: cycles simulated: 295500  inst.: 2309269 (ipc= 7.8) sim_rate=21993 (inst/sec) elapsed = 0:0:01:45 / Wed May 13 09:57:26 2015
GPGPU-Sim uArch: cycles simulated: 299000  inst.: 2322694 (ipc= 7.8) sim_rate=21912 (inst/sec) elapsed = 0:0:01:46 / Wed May 13 09:57:27 2015
GPGPU-Sim PTX: 2400000 instructions simulated : ctaid=(0,0,0) tid=(7,0,0)
GPGPU-Sim uArch: cycles simulated: 302500  inst.: 2336249 (ipc= 7.7) sim_rate=21834 (inst/sec) elapsed = 0:0:01:47 / Wed May 13 09:57:28 2015
GPGPU-Sim uArch: cycles simulated: 306000  inst.: 2349818 (ipc= 7.7) sim_rate=21757 (inst/sec) elapsed = 0:0:01:48 / Wed May 13 09:57:29 2015
GPGPU-Sim uArch: cycles simulated: 309500  inst.: 2363004 (ipc= 7.6) sim_rate=21678 (inst/sec) elapsed = 0:0:01:49 / Wed May 13 09:57:30 2015
GPGPU-Sim uArch: cycles simulated: 313500  inst.: 2378472 (ipc= 7.6) sim_rate=21622 (inst/sec) elapsed = 0:0:01:50 / Wed May 13 09:57:31 2015
GPGPU-Sim uArch: cycles simulated: 317000  inst.: 2392078 (ipc= 7.5) sim_rate=21550 (inst/sec) elapsed = 0:0:01:51 / Wed May 13 09:57:32 2015
GPGPU-Sim uArch: cycles simulated: 320500  inst.: 2405644 (ipc= 7.5) sim_rate=21478 (inst/sec) elapsed = 0:0:01:52 / Wed May 13 09:57:33 2015
GPGPU-Sim uArch: cycles simulated: 324000  inst.: 2419290 (ipc= 7.5) sim_rate=21409 (inst/sec) elapsed = 0:0:01:53 / Wed May 13 09:57:34 2015
GPGPU-Sim PTX: 2500000 instructions simulated : ctaid=(0,0,0) tid=(2,0,0)
GPGPU-Sim uArch: cycles simulated: 327500  inst.: 2432451 (ipc= 7.4) sim_rate=21337 (inst/sec) elapsed = 0:0:01:54 / Wed May 13 09:57:35 2015
GPGPU-Sim uArch: cycles simulated: 331000  inst.: 2446239 (ipc= 7.4) sim_rate=21271 (inst/sec) elapsed = 0:0:01:55 / Wed May 13 09:57:36 2015
GPGPU-Sim uArch: cycles simulated: 334500  inst.: 2459619 (ipc= 7.4) sim_rate=21203 (inst/sec) elapsed = 0:0:01:56 / Wed May 13 09:57:37 2015
GPGPU-Sim uArch: cycles simulated: 338500  inst.: 2474771 (ipc= 7.3) sim_rate=21151 (inst/sec) elapsed = 0:0:01:57 / Wed May 13 09:57:38 2015
GPGPU-Sim uArch: cycles simulated: 342000  inst.: 2488565 (ipc= 7.3) sim_rate=21089 (inst/sec) elapsed = 0:0:01:58 / Wed May 13 09:57:39 2015
GPGPU-Sim uArch: cycles simulated: 345500  inst.: 2501988 (ipc= 7.2) sim_rate=21025 (inst/sec) elapsed = 0:0:01:59 / Wed May 13 09:57:40 2015
GPGPU-Sim uArch: cycles simulated: 349000  inst.: 2515382 (ipc= 7.2) sim_rate=20961 (inst/sec) elapsed = 0:0:02:00 / Wed May 13 09:57:41 2015
GPGPU-Sim PTX: 2600000 instructions simulated : ctaid=(0,0,0) tid=(24,0,0)
GPGPU-Sim uArch: cycles simulated: 352500  inst.: 2529018 (ipc= 7.2) sim_rate=20900 (inst/sec) elapsed = 0:0:02:01 / Wed May 13 09:57:42 2015
GPGPU-Sim uArch: cycles simulated: 356000  inst.: 2542376 (ipc= 7.1) sim_rate=20839 (inst/sec) elapsed = 0:0:02:02 / Wed May 13 09:57:43 2015
GPGPU-Sim uArch: cycles simulated: 360000  inst.: 2558067 (ipc= 7.1) sim_rate=20797 (inst/sec) elapsed = 0:0:02:03 / Wed May 13 09:57:44 2015
GPGPU-Sim uArch: cycles simulated: 363500  inst.: 2571060 (ipc= 7.1) sim_rate=20734 (inst/sec) elapsed = 0:0:02:04 / Wed May 13 09:57:45 2015
GPGPU-Sim uArch: cycles simulated: 367000  inst.: 2584611 (ipc= 7.0) sim_rate=20676 (inst/sec) elapsed = 0:0:02:05 / Wed May 13 09:57:46 2015
GPGPU-Sim uArch: cycles simulated: 370500  inst.: 2598032 (ipc= 7.0) sim_rate=20619 (inst/sec) elapsed = 0:0:02:06 / Wed May 13 09:57:47 2015
GPGPU-Sim uArch: cycles simulated: 374500  inst.: 2613400 (ipc= 7.0) sim_rate=20577 (inst/sec) elapsed = 0:0:02:07 / Wed May 13 09:57:48 2015
GPGPU-Sim PTX: 2700000 instructions simulated : ctaid=(0,0,0) tid=(21,0,0)
GPGPU-Sim uArch: cycles simulated: 378000  inst.: 2627143 (ipc= 7.0) sim_rate=20524 (inst/sec) elapsed = 0:0:02:08 / Wed May 13 09:57:49 2015
GPGPU-Sim uArch: cycles simulated: 381500  inst.: 2640892 (ipc= 6.9) sim_rate=20472 (inst/sec) elapsed = 0:0:02:09 / Wed May 13 09:57:50 2015
GPGPU-Sim uArch: cycles simulated: 385000  inst.: 2653742 (ipc= 6.9) sim_rate=20413 (inst/sec) elapsed = 0:0:02:10 / Wed May 13 09:57:51 2015
GPGPU-Sim uArch: cycles simulated: 388500  inst.: 2667614 (ipc= 6.9) sim_rate=20363 (inst/sec) elapsed = 0:0:02:11 / Wed May 13 09:57:52 2015
GPGPU-Sim uArch: cycles simulated: 392500  inst.: 2683022 (ipc= 6.8) sim_rate=20325 (inst/sec) elapsed = 0:0:02:12 / Wed May 13 09:57:53 2015
GPGPU-Sim uArch: cycles simulated: 396000  inst.: 2696638 (ipc= 6.8) sim_rate=20275 (inst/sec) elapsed = 0:0:02:13 / Wed May 13 09:57:54 2015
GPGPU-Sim uArch: cycles simulated: 399500  inst.: 2709700 (ipc= 6.8) sim_rate=20221 (inst/sec) elapsed = 0:0:02:14 / Wed May 13 09:57:55 2015
GPGPU-Sim PTX: 2800000 instructions simulated : ctaid=(0,0,0) tid=(36,0,0)
GPGPU-Sim uArch: cycles simulated: 403000  inst.: 2723490 (ipc= 6.8) sim_rate=20174 (inst/sec) elapsed = 0:0:02:15 / Wed May 13 09:57:56 2015
GPGPU-Sim uArch: cycles simulated: 406500  inst.: 2736936 (ipc= 6.7) sim_rate=20124 (inst/sec) elapsed = 0:0:02:16 / Wed May 13 09:57:57 2015
GPGPU-Sim uArch: cycles simulated: 410500  inst.: 2752295 (ipc= 6.7) sim_rate=20089 (inst/sec) elapsed = 0:0:02:17 / Wed May 13 09:57:58 2015
GPGPU-Sim uArch: cycles simulated: 414000  inst.: 2765832 (ipc= 6.7) sim_rate=20042 (inst/sec) elapsed = 0:0:02:18 / Wed May 13 09:57:59 2015
GPGPU-Sim uArch: cycles simulated: 417500  inst.: 2779264 (ipc= 6.7) sim_rate=19994 (inst/sec) elapsed = 0:0:02:19 / Wed May 13 09:58:00 2015
GPGPU-Sim uArch: cycles simulated: 421000  inst.: 2792532 (ipc= 6.6) sim_rate=19946 (inst/sec) elapsed = 0:0:02:20 / Wed May 13 09:58:01 2015
GPGPU-Sim uArch: cycles simulated: 424500  inst.: 2806412 (ipc= 6.6) sim_rate=19903 (inst/sec) elapsed = 0:0:02:21 / Wed May 13 09:58:02 2015
GPGPU-Sim PTX: 2900000 instructions simulated : ctaid=(0,0,0) tid=(16,0,0)
GPGPU-Sim uArch: cycles simulated: 428500  inst.: 2821910 (ipc= 6.6) sim_rate=19872 (inst/sec) elapsed = 0:0:02:22 / Wed May 13 09:58:03 2015
GPGPU-Sim uArch: cycles simulated: 432000  inst.: 2835058 (ipc= 6.6) sim_rate=19825 (inst/sec) elapsed = 0:0:02:23 / Wed May 13 09:58:04 2015
GPGPU-Sim uArch: cycles simulated: 435500  inst.: 2848652 (ipc= 6.5) sim_rate=19782 (inst/sec) elapsed = 0:0:02:24 / Wed May 13 09:58:05 2015
GPGPU-Sim uArch: cycles simulated: 439000  inst.: 2862247 (ipc= 6.5) sim_rate=19739 (inst/sec) elapsed = 0:0:02:25 / Wed May 13 09:58:06 2015
GPGPU-Sim uArch: cycles simulated: 442500  inst.: 2875811 (ipc= 6.5) sim_rate=19697 (inst/sec) elapsed = 0:0:02:26 / Wed May 13 09:58:07 2015
GPGPU-Sim uArch: cycles simulated: 446000  inst.: 2889107 (ipc= 6.5) sim_rate=19653 (inst/sec) elapsed = 0:0:02:27 / Wed May 13 09:58:08 2015
GPGPU-Sim uArch: cycles simulated: 450000  inst.: 2904684 (ipc= 6.5) sim_rate=19626 (inst/sec) elapsed = 0:0:02:28 / Wed May 13 09:58:09 2015
GPGPU-Sim PTX: 3000000 instructions simulated : ctaid=(0,0,0) tid=(8,0,0)
GPGPU-Sim uArch: cycles simulated: 453500  inst.: 2918201 (ipc= 6.4) sim_rate=19585 (inst/sec) elapsed = 0:0:02:29 / Wed May 13 09:58:10 2015
[...]
traffic_breakdown_coretomem[CONST_ACC_R] = 120 {8:15,}
traffic_breakdown_coretomem[GLOBAL_ACC_R] = 72 {8:9,}
traffic_breakdown_coretomem[GLOBAL_ACC_W] = 20480 {40:512,}
traffic_breakdown_coretomem[INST_ACC_R] = 800 {8:100,}
traffic_breakdown_memtocore[CONST_ACC_R] = 1080 {72:15,}
traffic_breakdown_memtocore[GLOBAL_ACC_R] = 1224 {136:9,}
traffic_breakdown_memtocore[GLOBAL_ACC_W] = 4096 {8:512,}
traffic_breakdown_memtocore[INST_ACC_R] = 13600 {136:100,}
maxmrqlatency = 30 
maxdqlatency = 0 
maxmflatency = 366 
averagemflatency = 179 
max_icnt2mem_latency = 118 
max_icnt2sh_latency = 2507615 
mrq_lat_table:29 	1 	5 	13 	10 	0 	0 	0 	0 	0 	0 	0 	0 	0 	0 	0 	0 	0 	0 	0 	0 	0 	0 	0 	0 	0 	0 	0 	0 	0 	0 	0 	
dq_lat_table:0 	0 	0 	0 	0 	0 	0 	0 	0 	0 	0 	0 	0 	0 	0 	0 	0 	0 	0 	0 	0 	0 	0 	0 	0 	0 	0 	0 	0 	0 	0 	0 	
mf_lat_table:0 	0 	0 	0 	0 	0 	0 	452 	84 	0 	0 	0 	0 	0 	0 	0 	0 	0 	0 	0 	0 	0 	0 	0 	0 	0 	0 	0 	0 	0 	0 	0 	
icnt2mem_lat_table:0 	0 	0 	470 	81 	43 	42 	0 	0 	0 	0 	0 	0 	0 	0 	0 	0 	0 	0 	0 	0 	0 	0 	0 	
icnt2sh_lat_table:0 	0 	0 	11 	13 	0 	0 	0 	0 	0 	0 	139 	116 	0 	0 	0 	0 	0 	0 	0 	256 	1 	0 	0 	
mf_lat_pw_table:0 	0 	0 	0 	0 	0 	0 	14 	5 	0 	0 	0 	0 	0 	0 	0 	0 	0 	0 	0 	0 	0 	0 	0 	0 	0 	0 	0 	0 	0 	0 	0 	
maximum concurrent accesses to same row:
dram[0]:         1         0         0         0         0         0         0         0         0         0         0         0         0         0         0         0 
dram[1]:         0         0         0         0         0         0         0         0         0         0         0         0         0         0         0         0 
dram[2]:         0         0         0         0         0         0         0         0         0         0         0         0         0         0         0         0 
dram[3]:         0         0         0         0         0         0         0         0         0         0         0         0         0         0         0         0 
dram[4]:         0         0         0         0         0         0         0         0         0         0         0         0         0         0         0         0 
dram[5]:         0         0         0         0         0         0         0         0         0         0         0         0         0         0         0         0 
maximum service time to same row:
dram[0]:       572         0         0         0         0         0         0         0         0         0         0         0         0         0         0         0 
dram[1]:      2009         0         0         0         0         0         0         0         0         0         0         0         0         0         0         0 
dram[2]:      2694      2447         0         0         0      1418         0         0         0      1718         0         0         0      2013         0         0 
dram[3]:       825      3137         0         0         0         0         0         0         0         0         0         0         0         0         0         0 
dram[4]:      1478      3834         0         0         0         0         0         0         0         0         0         0         0         0         0         0 
dram[5]:      2149      4816         0         0         0         0         0         0         0         0         0         0         0         0         0         0 
average row accesses per activate:
dram[0]:  1.000000      -nan      -nan      -nan      -nan      -nan      -nan      -nan      -nan      -nan      -nan      -nan      -nan      -nan      -nan      -nan 
dram[1]:  2.000000      -nan      -nan      -nan      -nan      -nan      -nan      -nan      -nan      -nan      -nan      -nan      -nan      -nan      -nan      -nan 
dram[2]:  2.000000 10.000000      -nan      -nan      -nan  2.000000      -nan      -nan      -nan  2.000000      -nan      -nan      -nan  2.000000      -nan      -nan 
dram[3]:  2.000000 10.000000      -nan      -nan      -nan      -nan      -nan      -nan      -nan      -nan      -nan      -nan      -nan      -nan      -nan      -nan 
dram[4]:  2.000000 10.000000      -nan      -nan      -nan      -nan      -nan      -nan      -nan      -nan      -nan      -nan      -nan      -nan      -nan      -nan 
dram[5]:  1.000000 10.000000      -nan      -nan      -nan      -nan      -nan      -nan      -nan      -nan      -nan      -nan      -nan      -nan      -nan      -nan 
average row locality = 58/15 = 3.866667
number of total memory accesses made:
dram[0]:         0         0         0         0         0         0         0         0         0         0         0         0         0         0         0         0 
dram[1]:         0         0         0         0         0         0         0         0         0         0         0         0         0         0         0         0 
dram[2]:         0         0         0         0         0         0         0         0         0         0         0         0         0         0         0         0 
dram[3]:         0         0         0         0         0         0         0         0         0         0         0         0         0         0         0         0 
dram[4]:         0         0         0         0         0         0         0         0         0         0         0         0         0         0         0         0 
dram[5]:         0         0         0         0         0         0         0         0         0         0         0         0         0         0         0         0 
total accesses: 0
min_bank_accesses = 0!
min_chip_accesses = 0!
number of total read accesses:
dram[0]:         3         0         0         0         0         0         0         0         0         0         0         0         0         0         0         0 
dram[1]:         2         0         0         0         0         0         0         0         0         0         0         0         0         0         0         0 
dram[2]:         2         2         0         0         0         2         0         0         0         2         0         0         0         2         0         0 
dram[3]:         2         2         0         0         0         0         0         0         0         0         0         0         0         0         0         0 
dram[4]:         2         2         0         0         0         0         0         0         0         0         0         0         0         0         0         0 
dram[5]:         1         2         0         0         0         0         0         0         0         0         0         0         0         0         0         0 
total reads: 26
min_bank_accesses = 0!
chip skew: 10/2 = 5.00
number of total write accesses:
dram[0]:         0         0         0         0         0         0         0         0         0         0         0         0         0         0         0         0 
dram[1]:         0         0         0         0         0         0         0         0         0         0         0         0         0         0         0         0 
dram[2]:         0         8         0         0         0         0         0         0         0         0         0         0         0         0         0         0 
dram[3]:         0         8         0         0         0         0         0         0         0         0         0         0         0         0         0         0 
dram[4]:         0         8         0         0         0         0         0         0         0         0         0         0         0         0         0         0 
dram[5]:         0         8         0         0         0         0         0         0         0         0         0         0         0         0         0         0 
total reads: 32
min_bank_accesses = 0!
min_chip_accesses = 0!
average mf latency per bank:
dram[0]:       1300    none      none      none      none      none      none      none      none      none      none      none      none      none      none      none  
dram[1]:          0    none      none      none      none      none      none      none      none      none      none      none      none      none      none      none  
dram[2]:          0      2594    none      none      none         342    none      none      none         353    none      none      none         343    none      none  
dram[3]:          0      2388    none      none      none      none      none      none      none      none      none      none      none      none      none      none  
dram[4]:          0      2060    none      none      none      none      none      none      none      none      none      none      none      none      none      none  
dram[5]:          0      1967    none      none      none      none      none      none      none      none      none      none      none      none      none      none  
maximum mf latency per bank:
dram[0]:        278         0         0         0         0         0         0         0         0         0         0         0         0         0         0         0
dram[1]:          0         0         0         0         0         0         0         0         0         0         0         0         0         0         0         0
dram[2]:          0       366         0         0         0       273         0         0         0       273         0         0         0       274         0         0
dram[3]:          0       280         0         0         0         0         0         0         0         0         0         0         0         0         0         0
dram[4]:          0       279         0         0         0         0         0         0         0         0         0         0         0         0         0         0
dram[5]:          0       275         0         0         0         0         0         0         0         0         0         0         0         0         0         0

Number of Memory Banks Accessed per Memory Operation per Warp (from 0):
0	0	0	0	0	0	0	0	0	0	0	0	0	0	0	0	0	0	0	0	0	0	0	0	0	0	0	0	0	0	0	0	0	0	0	0	0	0	0	0	0	0	0	0	0	0	0	0	0	0	0	0	0	0	0	0	0	0	0	0	0	0	0	0	0	0	0	0	0	0	0	0	0	0	0	0	0	0	0	0	0	0	0	0	0	0	0	0	0	0	0	0	0	0	0	0	
Average # of Memory Banks Accessed per Memory Operation per Warp=-nan

position of mrq chosen
0	0	0	0	0	0	0	0	0	0	0	0	0	0	0	0	

average position of mrq chosen = -nan
Memory Partition 0: 
Cache L2_bank_000:
MSHR contents

Cache L2_bank_001:
MSHR contents

In Dram Latency Queue (total = 0): 
DRAM[0]: 16 bks, busW=4 BL=8 CL=12, tRRD=2 tCCD=6, tRCD=12 tRAS=28 tRP=12 tRC=40
n_cmd=3310052 n_nop=3310041 n_act=3 n_pre=2 n_req=3 n_rd=6 n_write=0 bw_util=3.625e-06
n_activity=144 dram_eff=0.08333
bk0: 6a 3309980i bk1: 0a 3310050i bk2: 0a 3310052i bk3: 0a 3310052i bk4: 0a 3310052i bk5: 0a 3310052i bk6: 0a 3310052i bk7: 0a 3310052i bk8: 0a 3310052i bk9: 0a 3310052i bk10: 0a 3310052i bk11: 0a 3310052i bk12: 0a 3310052i bk13: 0a 3310052i bk14: 0a 3310052i bk15: 0a 3310052i 
dram_util_bins: 0 0 0 0 0 0 0 0 0 0
dram_eff_bins: 0 0 0 0 0 0 0 0 0 0
mrqq: max=0 avg=0
Memory Partition 1: 
Cache L2_bank_002:
MSHR contents

Cache L2_bank_003:
MSHR contents

In Dram Latency Queue (total = 0): 
DRAM[1]: 16 bks, busW=4 BL=8 CL=12, tRRD=2 tCCD=6, tRCD=12 tRAS=28 tRP=12 tRC=40
n_cmd=3310052 n_nop=3310047 n_act=1 n_pre=0 n_req=2 n_rd=4 n_write=0 bw_util=2.417e-06
n_activity=55 dram_eff=0.1455
bk0: 4a 3310032i bk1: 0a 3310052i bk2: 0a 3310052i bk3: 0a 3310052i bk4: 0a 3310052i bk5: 0a 3310052i bk6: 0a 3310052i bk7: 0a 3310052i bk8: 0a 3310052i bk9: 0a 3310052i bk10: 0a 3310052i bk11: 0a 3310052i bk12: 0a 3310052i bk13: 0a 3310052i bk14: 0a 3310052i bk15: 0a 3310052i 
dram_util_bins: 0 0 0 0 0 0 0 0 0 0
dram_eff_bins: 0 0 0 0 0 0 0 0 0 0
mrqq: max=0 avg=0
Memory Partition 2: 
Cache L2_bank_004:
MSHR contents

Cache L2_bank_005:
MSHR contents

In Dram Latency Queue (total = 0): 
DRAM[2]: 16 bks, busW=4 BL=8 CL=12, tRRD=2 tCCD=6, tRCD=12 tRAS=28 tRP=12 tRC=40
n_cmd=3310052 n_nop=3310019 n_act=5 n_pre=0 n_req=18 n_rd=20 n_write=8 bw_util=1.692e-05
n_activity=275 dram_eff=0.2036
bk0: 4a 3310033i bk1: 4a 3309983i bk2: 0a 3310051i bk3: 0a 3310051i bk4: 0a 3310052i bk5: 4a 3310029i bk6: 0a 3310051i bk7: 0a 3310051i bk8: 0a 3310052i bk9: 4a 3310029i bk10: 0a 3310050i bk11: 0a 3310051i bk12: 0a 3310054i bk13: 4a 3310031i bk14: 0a 3310052i bk15: 0a 3310052i 
dram_util_bins: 0 0 0 0 0 0 0 0 0 0
dram_eff_bins: 0 0 0 0 0 0 0 0 0 0
mrqq: max=5 avg=5.4984e-05
Memory Partition 3: 
Cache L2_bank_006:
MSHR contents

Cache L2_bank_007:
MSHR contents

In Dram Latency Queue (total = 0): 
DRAM[3]: 16 bks, busW=4 BL=8 CL=12, tRRD=2 tCCD=6, tRCD=12 tRAS=28 tRP=12 tRC=40
n_cmd=3310052 n_nop=3310034 n_act=2 n_pre=0 n_req=12 n_rd=8 n_write=8 bw_util=9.668e-06
n_activity=148 dram_eff=0.2162
bk0: 4a 3310032i bk1: 4a 3309979i bk2: 0a 3310051i bk3: 0a 3310052i bk4: 0a 3310052i bk5: 0a 3310052i bk6: 0a 3310052i bk7: 0a 3310052i bk8: 0a 3310052i bk9: 0a 3310052i bk10: 0a 3310052i bk11: 0a 3310052i bk12: 0a 3310052i bk13: 0a 3310052i bk14: 0a 3310052i bk15: 0a 3310052i 
dram_util_bins: 0 0 0 0 0 0 0 0 0 0
dram_eff_bins: 0 0 0 0 0 0 0 0 0 0
mrqq: max=3 avg=3.71595e-05
Memory Partition 4: 
Cache L2_bank_008:
MSHR contents

Cache L2_bank_009:
MSHR contents

In Dram Latency Queue (total = 0): 
DRAM[4]: 16 bks, busW=4 BL=8 CL=12, tRRD=2 tCCD=6, tRCD=12 tRAS=28 tRP=12 tRC=40
n_cmd=3310052 n_nop=3310034 n_act=2 n_pre=0 n_req=12 n_rd=8 n_write=8 bw_util=9.668e-06
n_activity=148 dram_eff=0.2162
bk0: 4a 3310032i bk1: 4a 3309979i bk2: 0a 3310051i bk3: 0a 3310052i bk4: 0a 3310052i bk5: 0a 3310052i bk6: 0a 3310052i bk7: 0a 3310052i bk8: 0a 3310052i bk9: 0a 3310052i bk10: 0a 3310052i bk11: 0a 3310052i bk12: 0a 3310052i bk13: 0a 3310052i bk14: 0a 3310052i bk15: 0a 3310052i 
dram_util_bins: 0 0 0 0 0 0 0 0 0 0
dram_eff_bins: 0 0 0 0 0 0 0 0 0 0
mrqq: max=3 avg=3.77638e-05
Memory Partition 5: 
Cache L2_bank_010:
MSHR contents

Cache L2_bank_011:
MSHR contents

In Dram Latency Queue (total = 0): 
DRAM[5]: 16 bks, busW=4 BL=8 CL=12, tRRD=2 tCCD=6, tRCD=12 tRAS=28 tRP=12 tRC=40
n_cmd=3310052 n_nop=3310036 n_act=2 n_pre=0 n_req=11 n_rd=6 n_write=8 bw_util=8.459e-06
n_activity=135 dram_eff=0.2074
bk0: 2a 3310036i bk1: 4a 3309981i bk2: 0a 3310052i bk3: 0a 3310052i bk4: 0a 3310052i bk5: 0a 3310052i bk6: 0a 3310052i bk7: 0a 3310052i bk8: 0a 3310052i bk9: 0a 3310052i bk10: 0a 3310052i bk11: 0a 3310052i bk12: 0a 3310052i bk13: 0a 3310052i bk14: 0a 3310052i bk15: 0a 3310052i 
dram_util_bins: 0 0 0 0 0 0 0 0 0 0
dram_eff_bins: 0 0 0 0 0 0 0 0 0 0
mrqq: max=3 avg=2.11477e-05

========= L2 cache stats =========
L2_cache_bank[0]: Access = 32, Miss = 3, Miss_rate = 0.094, Pending_hits = 6, Reservation_fails = 225
L2_cache_bank[1]: Access = 0, Miss = 0, Miss_rate = -nan, Pending_hits = 0, Reservation_fails = 0
L2_cache_bank[2]: Access = 4, Miss = 2, Miss_rate = 0.500, Pending_hits = 0, Reservation_fails = 0
L2_cache_bank[3]: Access = 0, Miss = 0, Miss_rate = -nan, Pending_hits = 0, Reservation_fails = 0
L2_cache_bank[4]: Access = 4, Miss = 2, Miss_rate = 0.500, Pending_hits = 0, Reservation_fails = 0
L2_cache_bank[5]: Access = 137, Miss = 8, Miss_rate = 0.058, Pending_hits = 6, Reservation_fails = 119
L2_cache_bank[6]: Access = 30, Miss = 2, Miss_rate = 0.067, Pending_hits = 6, Reservation_fails = 200
L2_cache_bank[7]: Access = 128, Miss = 2, Miss_rate = 0.016, Pending_hits = 6, Reservation_fails = 227
L2_cache_bank[8]: Access = 30, Miss = 2, Miss_rate = 0.067, Pending_hits = 6, Reservation_fails = 191
L2_cache_bank[9]: Access = 128, Miss = 2, Miss_rate = 0.016, Pending_hits = 6, Reservation_fails = 170
L2_cache_bank[10]: Access = 15, Miss = 1, Miss_rate = 0.067, Pending_hits = 3, Reservation_fails = 100
L2_cache_bank[11]: Access = 128, Miss = 2, Miss_rate = 0.016, Pending_hits = 6, Reservation_fails = 121
L2_total_cache_accesses = 636
L2_total_cache_misses = 26
L2_total_cache_miss_rate = 0.0409
L2_total_cache_pending_hits = 45
L2_total_cache_reservation_fails = 1353
L2_total_cache_breakdown:
	L2_cache_stats_breakdown[GLOBAL_ACC_R][HIT] = 3
	L2_cache_stats_breakdown[GLOBAL_ACC_R][MISS] = 6
	L2_cache_stats_breakdown[CONST_ACC_R][HIT] = 11
	L2_cache_stats_breakdown[CONST_ACC_R][HIT_RESERVED] = 3
	L2_cache_stats_breakdown[CONST_ACC_R][MISS] = 1
	L2_cache_stats_breakdown[CONST_ACC_R][RESERVATION_FAIL] = 109
	L2_cache_stats_breakdown[GLOBAL_ACC_W][HIT] = 480
	L2_cache_stats_breakdown[GLOBAL_ACC_W][HIT_RESERVED] = 24
	L2_cache_stats_breakdown[GLOBAL_ACC_W][MISS] = 8
	L2_cache_stats_breakdown[GLOBAL_ACC_W][RESERVATION_FAIL] = 637
	L2_cache_stats_breakdown[INST_ACC_R][HIT] = 71
	L2_cache_stats_breakdown[INST_ACC_R][HIT_RESERVED] = 18
	L2_cache_stats_breakdown[INST_ACC_R][MISS] = 11
	L2_cache_stats_breakdown[INST_ACC_R][RESERVATION_FAIL] = 607
L2_cache_data_port_util = 0.000
L2_cache_fill_port_util = 0.000

icnt_total_pkts_mem_to_simt=1102
icnt_total_pkts_simt_to_mem=1148
LD_mem_lat_dist  0 0 0 0 0 0 0 0 0 0 0 0 0 0 0 0 0 0 0 0 0 0 0 0 0 0 0
ST_mem_lat_dist  0 0 0 0 0 0 0 0 0 0 0 0 0 0 0 0 0 0 0 0 0 0 0 0 0 0 0
----------------------------Interconnect-DETAILS--------------------------------
Class 0:
Packet latency average = 11.4356
	minimum = 6
	maximum = 115
Network latency average = 11.4337
	minimum = 6
	maximum = 115
Slowest packet = 788
Flit latency average = 12.2978
	minimum = 6
	maximum = 114
Slowest flit = 1526
Fragmentation average = 0
	minimum = 0
	maximum = 0
Injected packet rate average = 1.60862e-05
	minimum = 0 (at node 16)
	maximum = 5.51135e-05 (at node 20)
Accepted packet rate average = 1.60862e-05
	minimum = 0 (at node 16)
	maximum = 5.51135e-05 (at node 20)
Injected flit rate average = 2.48605e-05
	minimum = 0 (at node 16)
	maximum = 6.49845e-05 (at node 20)
Accepted flit rate average= 2.48605e-05
	minimum = 0 (at node 16)
	maximum = 0.000107759 (at node 20)
Injected packet length average = 1.54545
Accepted packet length average = 1.54545
Total in-flight flits = 0 (0 measured)
====== Overall Traffic Statistics ======
====== Traffic class 0 ======
Packet latency average = 12.4416 (2 samples)
	minimum = 6 (2 samples)
	maximum = 99 (2 samples)
Network latency average = 11.8654 (2 samples)
	minimum = 6 (2 samples)
	maximum = 99 (2 samples)
Flit latency average = 11.8804 (2 samples)
	minimum = 6 (2 samples)
	maximum = 98 (2 samples)
Fragmentation average = 0 (2 samples)
	minimum = 0 (2 samples)
	maximum = 0 (2 samples)
Injected packet rate average = 1.87075e-05 (2 samples)
	minimum = 0 (2 samples)
	maximum = 5.46477e-05 (2 samples)
Accepted packet rate average = 1.87075e-05 (2 samples)
	minimum = 0 (2 samples)
	maximum = 5.46477e-05 (2 samples)
Injected flit rate average = 3.2985e-05 (2 samples)
	minimum = 0 (2 samples)
	maximum = 9.05444e-05 (2 samples)
Accepted flit rate average = 3.2985e-05 (2 samples)
	minimum = 0 (2 samples)
	maximum = 0.000105739 (2 samples)
Injected packet size average = 1.7632 (2 samples)
Accepted packet size average = 1.7632 (2 samples)
Hops average = 1 (2 samples)
----------------------------END-of-Interconnect-DETAILS-------------------------


gpgpu_simulation_time = 0 days, 0 hrs, 11 min, 36 sec (696 sec)
gpgpu_simulation_rate = 10391 (inst/sec)
gpgpu_simulation_rate = 3602 (cycle/sec)
GPU: 11 queen = 2680  time = 695569.437500 msec
