

        *** GPGPU-Sim Simulator Version 3.2.2  [build 0] ***


GPGPU-Sim PTX: simulation mode 0 (can change with PTX_SIM_MODE_FUNC environment variable:
               1=functional simulation only, 0=detailed performance simulator)
GPGPU-Sim: Configuration options:

-network_mode                           1 # Interconnection network mode
-inter_config_file   config_fermi_islip.icnt # Interconnection network config file
-gpgpu_ptx_use_cuobjdump                    1 # Use cuobjdump to extract ptx and sass from binaries
-gpgpu_experimental_lib_support                    0 # Try to extract code from cuda libraries [Broken because of unknown cudaGetExportTable]
-gpgpu_ptx_convert_to_ptxplus                    0 # Convert SASS (native ISA) to ptxplus and run ptxplus
-gpgpu_ptx_force_max_capability                   20 # Force maximum compute capability
-gpgpu_ptx_inst_debug_to_file                    0 # Dump executed instructions' debug information to file
-gpgpu_ptx_inst_debug_file       inst_debug.txt # Executed instructions' debug output file
-gpgpu_ptx_inst_debug_thread_uid                    1 # Thread UID for executed instructions' debug output
-gpgpu_simd_model                       1 # 1 = post-dominator
-gpgpu_shader_core_pipeline          1536:256:32 # shader core pipeline config, i.e., {<nthread>:<warpsize>}
-gpgpu_tex_cache:l1  4:128:24,L:R:m:N:L,F:128:4,128:2 # per-shader L1 texture cache  (READ-ONLY) config  {<nsets>:<bsize>:<assoc>,<rep>:<wr>:<alloc>:<wr_alloc>,<mshr>:<N>:<merge>,<mq>:<rf>}
-gpgpu_const_cache:l1 64:64:2,L:R:f:N:L,A:2:32,4 # per-shader L1 constant memory cache  (READ-ONLY) config  {<nsets>:<bsize>:<assoc>,<rep>:<wr>:<alloc>:<wr_alloc>,<mshr>:<N>:<merge>,<mq>} 
-gpgpu_cache:il1     4:128:4,L:R:f:N:L,A:2:32,4 # shader L1 instruction cache config  {<nsets>:<bsize>:<assoc>,<rep>:<wr>:<alloc>:<wr_alloc>,<mshr>:<N>:<merge>,<mq>} 
-gpgpu_cache:dl1     32:128:4,L:L:m:N:H,A:32:8,8 # per-shader L1 data cache config  {<nsets>:<bsize>:<assoc>,<rep>:<wr>:<alloc>:<wr_alloc>,<mshr>:<N>:<merge>,<mq> | none}
-gpgpu_cache:dl1PrefL1                 none # per-shader L1 data cache config  {<nsets>:<bsize>:<assoc>,<rep>:<wr>:<alloc>:<wr_alloc>,<mshr>:<N>:<merge>,<mq> | none}
-gpgpu_cache:dl1PreShared                 none # per-shader L1 data cache config  {<nsets>:<bsize>:<assoc>,<rep>:<wr>:<alloc>:<wr_alloc>,<mshr>:<N>:<merge>,<mq> | none}
-gmem_skip_L1D                          0 # global memory access skip L1D cache (implements -Xptxas -dlcm=cg, default=no skip)
-gpgpu_perfect_mem                      0 # enable perfect memory mode (no cache miss)
-n_regfile_gating_group                    4 # group of lanes that should be read/written together)
-gpgpu_clock_gated_reg_file                    0 # enable clock gated reg file for power calculations
-gpgpu_clock_gated_lanes                    0 # enable clock gated lanes for power calculations
-gpgpu_shader_registers                32768 # Number of registers per shader core. Limits number of concurrent CTAs. (default 8192)
-gpgpu_shader_cta                       8 # Maximum number of concurrent CTAs in shader (default 8)
-gpgpu_num_cta_barriers                   16 # Maximum number of named barriers per CTA (default 16)
-gpgpu_n_clusters                      15 # number of processing clusters
-gpgpu_n_cores_per_cluster                    1 # number of simd cores per cluster
-gpgpu_n_cluster_ejection_buffer_size                    8 # number of packets in ejection buffer
-gpgpu_n_ldst_response_buffer_size                    2 # number of response packets in ld/st unit ejection buffer
-gpgpu_shmem_size                   16384 # Size of shared memory per shader core (default 16kB)
-gpgpu_shmem_size                   49152 # Size of shared memory per shader core (default 16kB)
-gpgpu_shmem_size_PrefL1                16384 # Size of shared memory per shader core (default 16kB)
-gpgpu_shmem_size_PrefShared                16384 # Size of shared memory per shader core (default 16kB)
-gpgpu_shmem_num_banks                   32 # Number of banks in the shared memory in each shader core (default 16)
-gpgpu_shmem_limited_broadcast                    0 # Limit shared memory to do one broadcast per cycle (default on)
-gpgpu_shmem_warp_parts                    1 # Number of portions a warp is divided into for shared memory bank conflict check 
-gpgpu_warpdistro_shader                   -1 # Specify which shader core to collect the warp size distribution from
-gpgpu_warp_issue_shader                    0 # Specify which shader core to collect the warp issue distribution from
-gpgpu_local_mem_map                    1 # Mapping from local memory space address to simulated GPU physical address space (default = enabled)
-gpgpu_num_reg_banks                   16 # Number of register banks (default = 8)
-gpgpu_reg_bank_use_warp_id                    0 # Use warp ID in mapping registers to banks (default = off)
-gpgpu_operand_collector_num_units_sp                    6 # number of collector units (default = 4)
-gpgpu_operand_collector_num_units_sfu                    8 # number of collector units (default = 4)
-gpgpu_operand_collector_num_units_mem                    2 # number of collector units (default = 2)
-gpgpu_operand_collector_num_units_gen                    0 # number of collector units (default = 0)
-gpgpu_operand_collector_num_in_ports_sp                    2 # number of collector unit in ports (default = 1)
-gpgpu_operand_collector_num_in_ports_sfu                    1 # number of collector unit in ports (default = 1)
-gpgpu_operand_collector_num_in_ports_mem                    1 # number of collector unit in ports (default = 1)
-gpgpu_operand_collector_num_in_ports_gen                    0 # number of collector unit in ports (default = 0)
-gpgpu_operand_collector_num_out_ports_sp                    2 # number of collector unit in ports (default = 1)
-gpgpu_operand_collector_num_out_ports_sfu                    1 # number of collector unit in ports (default = 1)
-gpgpu_operand_collector_num_out_ports_mem                    1 # number of collector unit in ports (default = 1)
-gpgpu_operand_collector_num_out_ports_gen                    0 # number of collector unit in ports (default = 0)
-gpgpu_coalesce_arch                   13 # Coalescing arch (default = 13, anything else is off for now)
-gpgpu_num_sched_per_core                    1 # Number of warp schedulers per core
-gpgpu_max_insn_issue_per_warp                    1 # Max number of instructions that can be issued per warp in one cycle by scheduler
-gpgpu_simt_core_sim_order                    1 # Select the simulation order of cores in a cluster (0=Fix, 1=Round-Robin)
-gpgpu_pipeline_widths        2,1,1,2,1,1,2 # Pipeline widths ID_OC_SP,ID_OC_SFU,ID_OC_MEM,OC_EX_SP,OC_EX_SFU,OC_EX_MEM,EX_WB
-gpgpu_num_sp_units                     2 # Number of SP units (default=1)
-gpgpu_num_sfu_units                    1 # Number of SF units (default=1)
-gpgpu_num_mem_units                    1 # Number if ldst units (default=1) WARNING: not hooked up to anything
-gpgpu_scheduler                      gto # Scheduler configuration: < lrr | gto | two_level_active > If two_level_active:<num_active_warps>:<inner_prioritization>:<outer_prioritization>For complete list of prioritization values see shader.h enum scheduler_prioritization_typeDefault: gto
-gpgpu_dram_scheduler                    1 # 0 = fifo, 1 = FR-FCFS (defaul)
-gpgpu_dram_partition_queues              8:8:8:8 # i2$:$2d:d2$:$2i
-l2_ideal                               0 # Use a ideal L2 cache that always hit
-gpgpu_cache:dl2     64:128:8,L:B:m:W:L,A:32:4,4:0,32 # unified banked L2 data cache config  {<nsets>:<bsize>:<assoc>,<rep>:<wr>:<alloc>:<wr_alloc>,<mshr>:<N>:<merge>,<mq>}
-gpgpu_cache:dl2_texture_only                    0 # L2 cache used for texture only
-gpgpu_n_mem                            6 # number of memory modules (e.g. memory controllers) in gpu
-gpgpu_n_sub_partition_per_mchannel                    2 # number of memory subpartition in each memory module
-gpgpu_n_mem_per_ctrlr                    2 # number of memory chips per memory controller
-gpgpu_memlatency_stat                   14 # track and display latency statistics 0x2 enables MC, 0x4 enables queue logs
-gpgpu_frfcfs_dram_sched_queue_size                   16 # 0 = unlimited (default); # entries per chip
-gpgpu_dram_return_queue_size                  116 # 0 = unlimited (default); # entries per chip
-gpgpu_dram_buswidth                    4 # default = 4 bytes (8 bytes per cycle at DDR)
-gpgpu_dram_burst_length                    8 # Burst length of each DRAM request (default = 4 data bus cycle)
-dram_data_command_freq_ratio                    4 # Frequency ratio between DRAM data bus and command bus (default = 2 times, i.e. DDR)
-gpgpu_dram_timing_opt nbk=16:CCD=2:RRD=6:RCD=12:RAS=28:RP=12:RC=40: CL=12:WL=4:CDLR=5:WR=12:nbkgrp=4:CCDL=3:RTPL=2 # DRAM timing parameters = {nbk:tCCD:tRRD:tRCD:tRAS:tRP:tRC:CL:WL:tCDLR:tWR:nbkgrp:tCCDL:tRTPL}
-rop_latency                          120 # ROP queue latency (default 85)
-dram_latency                         100 # DRAM latency (default 30)
-gpgpu_mem_addr_mapping dramid@8;00000000.00000000.00000000.00000000.0000RRRR.RRRRRRRR.BBBCCCCB.CCSSSSSS # mapping memory address to dram model {dramid@<start bit>;<memory address map>}
-gpgpu_mem_addr_test                    0 # run sweep test to check address mapping for aliased address
-gpgpu_mem_address_mask                    1 # 0 = old addressing mask, 1 = new addressing mask, 2 = new add. mask + flipped bank sel and chip sel bits
-gpuwattch_xml_file  gpuwattch_gtx480.xml # GPUWattch XML file
-power_simulation_enabled                    1 # Turn on power simulator (1=On, 0=Off)
-power_per_cycle_dump                    0 # Dump detailed power output each cycle
-power_trace_enabled                    0 # produce a file for the power trace (1=On, 0=Off)
-power_trace_zlevel                     6 # Compression level of the power trace output log (0=no comp, 9=highest)
-steady_power_levels_enabled                    0 # produce a file for the steady power levels (1=On, 0=Off)
-steady_state_definition                  8:4 # allowed deviation:number of samples
-gpgpu_max_cycle                        0 # terminates gpu simulation early (0 = no limit)
-gpgpu_max_insn                         0 # terminates gpu simulation early (0 = no limit)
-gpgpu_max_cta                          0 # terminates gpu simulation early (0 = no limit)
-gpgpu_runtime_stat                   500 # display runtime statistics such as dram utilization {<freq>:<flag>}
-liveness_message_freq                    1 # Minimum number of seconds between simulation liveness messages (0 = always print)
-gpgpu_flush_l1_cache                    0 # Flush L1 cache at the end of each kernel call
-gpgpu_flush_l2_cache                    0 # Flush L2 cache at the end of each kernel call
-gpgpu_deadlock_detect                    1 # Stop the simulation at deadlock (1=on (default), 0=off)
-gpgpu_ptx_instruction_classification                    0 # if enabled will classify ptx instruction types per kernel (Max 255 kernels now)
-gpgpu_ptx_sim_mode                     0 # Select between Performance (default) or Functional simulation (1)
-gpgpu_clock_domains 700.0:700.0:700.0:924.0 # Clock Domain Frequencies in MhZ {<Core Clock>:<ICNT Clock>:<L2 Clock>:<DRAM Clock>}
-gpgpu_max_concurrent_kernel                    8 # maximum kernels that can run concurrently on GPU
-gpgpu_cflog_interval                    0 # Interval between each snapshot in control flow logger
-visualizer_enabled                     0 # Turn on visualizer output (1=On, 0=Off)
-visualizer_outputfile                 NULL # Specifies the output log file for visualizer
-visualizer_zlevel                      6 # Compression level of the visualizer output log (0=no comp, 9=highest)
-trace_enabled                          0 # Turn on traces
-trace_components                    none # comma seperated list of traces to enable. Complete list found in trace_streams.tup. Default none
-trace_sampling_core                    0 # The core which is printed using CORE_DPRINTF. Default 0
-trace_sampling_memory_partition                   -1 # The memory partition which is printed using MEMPART_DPRINTF. Default -1 (i.e. all)
-enable_ptx_file_line_stats                    1 # Turn on PTX source line statistic profiling. (1 = On)
-ptx_line_stats_filename gpgpu_inst_stats.txt # Output file for PTX source line statistics.
-save_embedded_ptx                      0 # saves ptx files embedded in binary as <n>.ptx
-keep                                   0 # keep intermediate files created by GPGPU-Sim when interfacing with external programs
-gpgpu_ptx_save_converted_ptxplus                    0 # Saved converted ptxplus to a file
-ptx_opcode_latency_int         4,13,4,5,145 # Opcode latencies for integers <ADD,MAX,MUL,MAD,DIV>Default 1,1,19,25,145
-ptx_opcode_latency_fp          4,13,4,5,39 # Opcode latencies for single precision floating points <ADD,MAX,MUL,MAD,DIV>Default 1,1,1,1,30
-ptx_opcode_latency_dp         8,19,8,8,330 # Opcode latencies for double precision floating points <ADD,MAX,MUL,MAD,DIV>Default 8,8,8,8,335
-ptx_opcode_initiation_int            1,2,2,1,8 # Opcode initiation intervals for integers <ADD,MAX,MUL,MAD,DIV>Default 1,1,4,4,32
-ptx_opcode_initiation_fp            1,2,1,1,4 # Opcode initiation intervals for single precision floating points <ADD,MAX,MUL,MAD,DIV>Default 1,1,1,1,5
-ptx_opcode_initiation_dp         8,16,8,8,130 # Opcode initiation intervals for double precision floating points <ADD,MAX,MUL,MAD,DIV>Default 8,8,8,8,130
ESHA: SIMD Width was found to be : 32
DRAM Timing Options:
nbk                                    16 # number of banks
CCD                                     2 # column to column delay
RRD                                     6 # minimal delay between activation of rows in different banks
RCD                                    12 # row to column delay
RAS                                    28 # time needed to activate row
RP                                     12 # time needed to precharge (deactivate) row
RC                                     40 # row cycle time
CDLR                                    5 # switching from write to read (changes tWTR)
WR                                     12 # last data-in to row precharge
CL                                     12 # CAS latency
WL                                      4 # Write latency
nbkgrp                                  4 # number of bank groups
CCDL                                    3 # column to column delay between accesses to different bank groups
RTPL                                    2 # read to precharge delay between accesses to different bank groups
Total number of memory sub partition = 12
addr_dec_mask[CHIP]  = 0000000000000000 	high:64 low:0
addr_dec_mask[BK]    = 000000000000e100 	high:16 low:8
addr_dec_mask[ROW]   = 000000000fff0000 	high:28 low:16
addr_dec_mask[COL]   = 0000000000001eff 	high:13 low:0
addr_dec_mask[BURST] = 000000000000003f 	high:6 low:0
sub_partition_id_mask = 0000000000000100
GPGPU-Sim uArch: clock freqs: 700000000.000000:700000000.000000:700000000.000000:924000000.000000
GPGPU-Sim uArch: clock periods: 0.00000000142857142857:0.00000000142857142857:0.00000000142857142857:0.00000000108225108225
ESHA_CHANGED: in shader config simd is  32 
*** Initializing Memory Statistics ***
GPGPU-Sim uArch: interconnect node map (shaderID+MemID to icntID)
GPGPU-Sim uArch: Memory nodes ID start from index: 15
GPGPU-Sim uArch:    0   1   2   3   4
GPGPU-Sim uArch:    5   6   7   8   9
GPGPU-Sim uArch:   10  11  12  13  14
GPGPU-Sim uArch:   15  16  17  18  19
GPGPU-Sim uArch:   20  21  22  23  24
GPGPU-Sim uArch:   25  26
GPGPU-Sim uArch: interconnect node reverse map (icntID to shaderID+MemID)
GPGPU-Sim uArch: Memory nodes start from ID: 15
GPGPU-Sim uArch:    0   1   2   3   4
GPGPU-Sim uArch:    5   6   7   8   9
GPGPU-Sim uArch:   10  11  12  13  14
GPGPU-Sim uArch:   15  16  17  18  19
GPGPU-Sim uArch:   20  21  22  23  24
GPGPU-Sim uArch:   25  26
62f7c84b053e7125f7dedfb6f8cd2ad7  /home/kishore/project_source/gpu_class_proj/gpgpusim-benchmarks-master/bin/release/RAY
GPGPU-Sim uArch: performance model initialization complete.
GPGPU-Sim PTX: __cudaRegisterFatBinary, fat_cubin_handle = 1, filename=rayTracing.cu
self exe links to: /home/kishore/project_source/gpu_class_proj/gpgpusim-benchmarks-master/bin/release/RAY
Running md5sum using "md5sum /home/kishore/project_source/gpu_class_proj/gpgpusim-benchmarks-master/bin/release/RAY "
Running cuobjdump using "$CUDA_INSTALL_PATH/bin/cuobjdump -ptx -elf -sass /home/kishore/project_source/gpu_class_proj/gpgpusim-benchmarks-master/bin/release/RAY > _cuobjdump_complete_output_EvUAX6"
Parsing file _cuobjdump_complete_output_EvUAX6
######### cuobjdump parser ########
## Adding new section PTX
Adding ptx filename: _cuobjdump_1.ptx
Adding arch: sm_10
Adding identifier: rayTracing.cu
## Adding new section ELF
Adding arch: sm_10
Adding identifier: rayTracing.cu
## Adding new section ELF
Adding arch: sm_20
Adding identifier: rayTracing.cu
## Adding new section PTX
Adding ptx filename: _cuobjdump_2.ptx
Adding arch: sm_20
Adding identifier: rayTracing.cu
Done parsing!!!
GPGPU-Sim PTX: __cudaRegisterFunction _Z6renderPjP4Nodejjff : hostFun 0x0x40a280, fat_cubin_handle = 1
GPGPU-Sim PTX: allocating stack frame region for .param "__cudaretf__Zmi6float3S_" from 0x0 to 0xc
GPGPU-Sim PTX: allocating stack frame region for .param "__cudaparmf1__Zmi6float3S_" from 0xc to 0x18
GPGPU-Sim PTX: allocating stack frame region for .param "__cudaparmf2__Zmi6float3S_" from 0x18 to 0x24
GPGPU-Sim PTX: allocating stack frame region for .param "__cudaretf__Z9normalize6float3" from 0x0 to 0xc
GPGPU-Sim PTX: allocating stack frame region for .param "__cudaparmf1__Z9normalize6float3" from 0xc to 0x18
GPGPU-Sim PTX: allocating stack frame region for .param "__cudaretf__Z18intersectionSphere5Rayon6float3f" from 0x0 to 0x4
GPGPU-Sim PTX: allocating stack frame region for .param "__cudaparmf1__Z18intersectionSphere5Rayon6float3f" from 0x4 to 0x1c
GPGPU-Sim PTX: allocating stack frame region for .param "__cudaparmf2__Z18intersectionSphere5Rayon6float3f" from 0x1c to 0x28
GPGPU-Sim PTX: allocating stack frame region for .param "__cudaparmf3__Z18intersectionSphere5Rayon6float3f" from 0x28 to 0x2c
GPGPU-Sim PTX: allocating stack frame region for .param "__cudaretf__Z16intersectionPlan5Rayon6float3S0_" from 0x0 to 0x4
GPGPU-Sim PTX: allocating stack frame region for .param "__cudaparmf1__Z16intersectionPlan5Rayon6float3S0_" from 0x4 to 0x1c
GPGPU-Sim PTX: allocating stack frame region for .param "__cudaparmf2__Z16intersectionPlan5Rayon6float3S0_" from 0x1c to 0x28
GPGPU-Sim PTX: allocating stack frame region for .param "__cudaparmf3__Z16intersectionPlan5Rayon6float3S0_" from 0x28 to 0x34
GPGPU-Sim PTX: allocating stack frame region for .param "__cudaretf__Z10getNormale6float3S_" from 0x0 to 0xc
GPGPU-Sim PTX: allocating stack frame region for .param "__cudaparmf1__Z10getNormale6float3S_" from 0xc to 0x18
GPGPU-Sim PTX: allocating stack frame region for .param "__cudaparmf2__Z10getNormale6float3S_" from 0x18 to 0x24
GPGPU-Sim PTX: allocating stack frame region for .param "__cudaretf__Z11getNormaleP6float3" from 0x0 to 0xc
GPGPU-Sim PTX: allocating stack frame region for .param "__cudaparmf1__Z11getNormaleP6float3" from 0xc to 0x18
GPGPU-Sim PTX: allocating stack frame region for .param "__cudaretf__Z14rgbaFloatToInt6float4" from 0x0 to 0x4
GPGPU-Sim PTX: allocating stack frame region for .param "__cudaparmf1__Z14rgbaFloatToInt6float4" from 0x4 to 0x14
GPGPU-Sim PTX: allocating stack frame region for .param "__cudaretf__Z12notShadowRayP4Node6float3S1_f" from 0x0 to 0x4
GPGPU-Sim PTX: allocating stack frame region for .param "__cudaparmf1__Z12notShadowRayP4Node6float3S1_f" from 0x4 to 0xc
GPGPU-Sim PTX: allocating stack frame region for .param "__cudaparmf2__Z12notShadowRayP4Node6float3S1_f" from 0xc to 0x18
GPGPU-Sim PTX: allocating stack frame region for .param "__cudaparmf3__Z12notShadowRayP4Node6float3S1_f" from 0x18 to 0x24
GPGPU-Sim PTX: allocating stack frame region for .param "__cudaparmf4__Z12notShadowRayP4Node6float3S1_f" from 0x24 to 0x28
GPGPU-Sim PTX: allocating stack frame region for .param "__cudaretf__Z15float2int_pow20f" from 0x0 to 0x4
GPGPU-Sim PTX: allocating stack frame region for .param "__cudaparmf1__Z15float2int_pow20f" from 0x4 to 0x8
GPGPU-Sim PTX: allocating stack frame region for .param "__cudaretf__Z15float2int_pow50f" from 0x0 to 0x4
GPGPU-Sim PTX: allocating stack frame region for .param "__cudaparmf1__Z15float2int_pow50f" from 0x4 to 0x8
GPGPU-Sim PTX: allocating stack frame region for .param "__cudaparmf1__ZN4dim3C1Ejjj" from 0x0 to 0x8
GPGPU-Sim PTX: allocating stack frame region for .param "__cudaparmf2__ZN4dim3C1Ejjj" from 0x8 to 0xc
GPGPU-Sim PTX: allocating stack frame region for .param "__cudaparmf3__ZN4dim3C1Ejjj" from 0xc to 0x10
GPGPU-Sim PTX: allocating stack frame region for .param "__cudaparmf4__ZN4dim3C1Ejjj" from 0x10 to 0x14
GPGPU-Sim PTX: instruction assembly for function '_Zmi6float3S_'...   done.
GPGPU-Sim PTX: finding reconvergence points for '_Zmi6float3S_'...
GPGPU-Sim PTX: Finding dominators for '_Zmi6float3S_'...
GPGPU-Sim PTX: Finding immediate dominators for '_Zmi6float3S_'...
GPGPU-Sim PTX: Finding postdominators for '_Zmi6float3S_'...
GPGPU-Sim PTX: Finding immediate postdominators for '_Zmi6float3S_'...
GPGPU-Sim PTX: pre-decoding instructions for '_Zmi6float3S_'...
GPGPU-Sim PTX: reconvergence points for _Zmi6float3S_...
GPGPU-Sim PTX: ... end of reconvergence points for _Zmi6float3S_
GPGPU-Sim PTX: ... done pre-decoding instructions for '_Zmi6float3S_'.
GPGPU-Sim PTX: instruction assembly for function '_Z9normalize6float3'...   done.
GPGPU-Sim PTX: finding reconvergence points for '_Z9normalize6float3'...
GPGPU-Sim PTX: Finding dominators for '_Z9normalize6float3'...
GPGPU-Sim PTX: Finding immediate dominators for '_Z9normalize6float3'...
GPGPU-Sim PTX: Finding postdominators for '_Z9normalize6float3'...
GPGPU-Sim PTX: Finding immediate postdominators for '_Z9normalize6float3'...
GPGPU-Sim PTX: pre-decoding instructions for '_Z9normalize6float3'...
GPGPU-Sim PTX: reconvergence points for _Z9normalize6float3...
GPGPU-Sim PTX: ... end of reconvergence points for _Z9normalize6float3
GPGPU-Sim PTX: ... done pre-decoding instructions for '_Z9normalize6float3'.
GPGPU-Sim PTX: instruction assembly for function '_Z18intersectionSphere5Rayon6float3f'...   done.
GPGPU-Sim PTX: finding reconvergence points for '_Z18intersectionSphere5Rayon6float3f'...
GPGPU-Sim PTX: Finding dominators for '_Z18intersectionSphere5Rayon6float3f'...
GPGPU-Sim PTX: Finding immediate dominators for '_Z18intersectionSphere5Rayon6float3f'...
GPGPU-Sim PTX: Finding postdominators for '_Z18intersectionSphere5Rayon6float3f'...
GPGPU-Sim PTX: Finding immediate postdominators for '_Z18intersectionSphere5Rayon6float3f'...
GPGPU-Sim PTX: pre-decoding instructions for '_Z18intersectionSphere5Rayon6float3f'...
GPGPU-Sim PTX: reconvergence points for _Z18intersectionSphere5Rayon6float3f...
GPGPU-Sim PTX:  1 (potential) branch divergence @  PC=0x250 (_1.ptx:173) @%p2 bra $Lt_2_3074;
GPGPU-Sim PTX:    immediate post dominator      @  PC=0x2c0 (_1.ptx:193) mov.f32 %f39, %f32;
GPGPU-Sim PTX:  2 (potential) branch divergence @  PC=0x260 (_1.ptx:175) bra.uni $Lt_2_2818;
GPGPU-Sim PTX:    immediate post dominator      @  PC=0x2c0 (_1.ptx:193) mov.f32 %f39, %f32;
GPGPU-Sim PTX:  3 (potential) branch divergence @  PC=0x280 (_1.ptx:180) @!%p3 bra $Lt_2_3586;
GPGPU-Sim PTX:    immediate post dominator      @  PC=0x2c0 (_1.ptx:193) mov.f32 %f39, %f32;
GPGPU-Sim PTX:  4 (potential) branch divergence @  PC=0x290 (_1.ptx:182) bra.uni $Lt_2_3330;
GPGPU-Sim PTX:    immediate post dominator      @  PC=0x2c0 (_1.ptx:193) mov.f32 %f39, %f32;
GPGPU-Sim PTX: ... end of reconvergence points for _Z18intersectionSphere5Rayon6float3f
GPGPU-Sim PTX: ... done pre-decoding instructions for '_Z18intersectionSphere5Rayon6float3f'.
GPGPU-Sim PTX: instruction assembly for function '_Z16intersectionPlan5Rayon6float3S0_'...   done.
GPGPU-Sim PTX: finding reconvergence points for '_Z16intersectionPlan5Rayon6float3S0_'...
GPGPU-Sim PTX: Finding dominators for '_Z16intersectionPlan5Rayon6float3S0_'...
GPGPU-Sim PTX: Finding immediate dominators for '_Z16intersectionPlan5Rayon6float3S0_'...
GPGPU-Sim PTX: Finding postdominators for '_Z16intersectionPlan5Rayon6float3S0_'...
GPGPU-Sim PTX: Finding immediate postdominators for '_Z16intersectionPlan5Rayon6float3S0_'...
GPGPU-Sim PTX: pre-decoding instructions for '_Z16intersectionPlan5Rayon6float3S0_'...
GPGPU-Sim PTX: reconvergence points for _Z16intersectionPlan5Rayon6float3S0_...
GPGPU-Sim PTX:  1 (potential) branch divergence @  PC=0x320 (_1.ptx:214) @!%p1 bra $Lt_3_2050;
GPGPU-Sim PTX:    immediate post dominator      @  PC=0x368 (_1.ptx:227) mov.f32 %f14, %f9;
GPGPU-Sim PTX:  2 (potential) branch divergence @  PC=0x330 (_1.ptx:216) bra.uni $Lt_3_1794;
GPGPU-Sim PTX:    immediate post dominator      @  PC=0x368 (_1.ptx:227) mov.f32 %f14, %f9;
GPGPU-Sim PTX: ... end of reconvergence points for _Z16intersectionPlan5Rayon6float3S0_
GPGPU-Sim PTX: ... done pre-decoding instructions for '_Z16intersectionPlan5Rayon6float3S0_'.
GPGPU-Sim PTX: instruction assembly for function '_Z10getNormale6float3S_'...   done.
GPGPU-Sim PTX: finding reconvergence points for '_Z10getNormale6float3S_'...
GPGPU-Sim PTX: Finding dominators for '_Z10getNormale6float3S_'...
GPGPU-Sim PTX: Finding immediate dominators for '_Z10getNormale6float3S_'...
GPGPU-Sim PTX: Finding postdominators for '_Z10getNormale6float3S_'...
GPGPU-Sim PTX: Finding immediate postdominators for '_Z10getNormale6float3S_'...
GPGPU-Sim PTX: pre-decoding instructions for '_Z10getNormale6float3S_'...
GPGPU-Sim PTX: reconvergence points for _Z10getNormale6float3S_...
GPGPU-Sim PTX: ... end of reconvergence points for _Z10getNormale6float3S_
GPGPU-Sim PTX: ... done pre-decoding instructions for '_Z10getNormale6float3S_'.
GPGPU-Sim PTX: instruction assembly for function '_Z11getNormaleP6float3'...   done.
GPGPU-Sim PTX: finding reconvergence points for '_Z11getNormaleP6float3'...
GPGPU-Sim PTX: Finding dominators for '_Z11getNormaleP6float3'...
GPGPU-Sim PTX: Finding immediate dominators for '_Z11getNormaleP6float3'...
GPGPU-Sim PTX: Finding postdominators for '_Z11getNormaleP6float3'...
GPGPU-Sim PTX: Finding immediate postdominators for '_Z11getNormaleP6float3'...
GPGPU-Sim PTX: pre-decoding instructions for '_Z11getNormaleP6float3'...
GPGPU-Sim PTX: reconvergence points for _Z11getNormaleP6float3...
GPGPU-Sim PTX: ... end of reconvergence points for _Z11getNormaleP6float3
GPGPU-Sim PTX: ... done pre-decoding instructions for '_Z11getNormaleP6float3'.
GPGPU-Sim PTX: instruction assembly for function '_Z14rgbaFloatToInt6float4'...   done.
GPGPU-Sim PTX: finding reconvergence points for '_Z14rgbaFloatToInt6float4'...
GPGPU-Sim PTX: Finding dominators for '_Z14rgbaFloatToInt6float4'...
GPGPU-Sim PTX: Finding immediate dominators for '_Z14rgbaFloatToInt6float4'...
GPGPU-Sim PTX: Finding postdominators for '_Z14rgbaFloatToInt6float4'...
GPGPU-Sim PTX: Finding immediate postdominators for '_Z14rgbaFloatToInt6float4'...
GPGPU-Sim PTX: pre-decoding instructions for '_Z14rgbaFloatToInt6float4'...
GPGPU-Sim PTX: reconvergence points for _Z14rgbaFloatToInt6float4...
GPGPU-Sim PTX: ... end of reconvergence points for _Z14rgbaFloatToInt6float4
GPGPU-Sim PTX: ... done pre-decoding instructions for '_Z14rgbaFloatToInt6float4'.
GPGPU-Sim PTX: allocating global region for "cnode" from 0x100 to 0x1a0 (global memory space)
GPGPU-Sim PTX: instruction assembly for function '_Z12notShadowRayP4Node6float3S1_f'...   done.
GPGPU-Sim PTX: finding reconvergence points for '_Z12notShadowRayP4Node6float3S1_f'...
GPGPU-Sim PTX: Finding dominators for '_Z12notShadowRayP4Node6float3S1_f'...
GPGPU-Sim PTX: Finding immediate dominators for '_Z12notShadowRayP4Node6float3S1_f'...
GPGPU-Sim PTX: Finding postdominators for '_Z12notShadowRayP4Node6float3S1_f'...
GPGPU-Sim PTX: Finding immediate postdominators for '_Z12notShadowRayP4Node6float3S1_f'...
GPGPU-Sim PTX: pre-decoding instructions for '_Z12notShadowRayP4Node6float3S1_f'...
GPGPU-Sim PTX: reconvergence points for _Z12notShadowRayP4Node6float3S1_f...
GPGPU-Sim PTX:  1 (potential) branch divergence @  PC=0x638 (_1.ptx:364) @%p1 bra $Lt_7_8450;
GPGPU-Sim PTX:    immediate post dominator      @  PC=0x828 (_1.ptx:441) mov.f32 %f58, 0f00000000;    // 0
GPGPU-Sim PTX:  2 (potential) branch divergence @  PC=0x658 (_1.ptx:369) @!%p2 bra $Lt_7_8962;
GPGPU-Sim PTX:    immediate post dominator      @  PC=0x6b8 (_1.ptx:385) mov.f32 %f28, %f20;
GPGPU-Sim PTX:  3 (potential) branch divergence @  PC=0x668 (_1.ptx:371) bra.uni $Lt_7_8706;
GPGPU-Sim PTX:    immediate post dominator      @  PC=0x6b8 (_1.ptx:385) mov.f32 %f28, %f20;
GPGPU-Sim PTX:  4 (potential) branch divergence @  PC=0x6c0 (_1.ptx:386) bra.uni $Lt_7_8194;
GPGPU-Sim PTX:    immediate post dominator      @  PC=0x828 (_1.ptx:441) mov.f32 %f58, 0f00000000;    // 0
GPGPU-Sim PTX:  5 (potential) branch divergence @  PC=0x7b0 (_1.ptx:418) @%p5 bra $Lt_7_9474;
GPGPU-Sim PTX:    immediate post dominator      @  PC=0x820 (_1.ptx:438) mov.f32 %f28, %f51;
GPGPU-Sim PTX:  6 (potential) branch divergence @  PC=0x7c0 (_1.ptx:420) bra.uni $Lt_7_9730;
GPGPU-Sim PTX:    immediate post dominator      @  PC=0x820 (_1.ptx:438) mov.f32 %f28, %f51;
GPGPU-Sim PTX:  7 (potential) branch divergence @  PC=0x7e0 (_1.ptx:425) @!%p6 bra $Lt_7_9986;
GPGPU-Sim PTX:    immediate post dominator      @  PC=0x820 (_1.ptx:438) mov.f32 %f28, %f51;
GPGPU-Sim PTX:  8 (potential) branch divergence @  PC=0x7f0 (_1.ptx:427) bra.uni $Lt_7_9730;
GPGPU-Sim PTX:    immediate post dominator      @  PC=0x820 (_1.ptx:438) mov.f32 %f28, %f51;
GPGPU-Sim PTX:  9 (potential) branch divergence @  PC=0x838 (_1.ptx:443) @!%p7 bra $Lt_7_10242;
GPGPU-Sim PTX:    immediate post dominator      @  PC=0x8e8 (_1.ptx:468) add.s32 %r1, %r1, 1;
GPGPU-Sim PTX: 10 (potential) branch divergence @  PC=0x8d8 (_1.ptx:463) @!%p8 bra $Lt_7_10242;
GPGPU-Sim PTX:    immediate post dominator      @  PC=0x8e8 (_1.ptx:468) add.s32 %r1, %r1, 1;
GPGPU-Sim PTX: 11 (potential) branch divergence @  PC=0x908 (_1.ptx:472) @%p9 bra $Lt_7_10754;
GPGPU-Sim PTX:    immediate post dominator      @  PC=0x960 (_1.ptx:486) selp.s32 %r10, 1, 0, %p11;
GPGPU-Sim PTX: 12 (potential) branch divergence @  PC=0x930 (_1.ptx:477) @%p10 bra $L_7_7170;
GPGPU-Sim PTX:    immediate post dominator      @  PC=0x960 (_1.ptx:486) selp.s32 %r10, 1, 0, %p11;
GPGPU-Sim PTX: 13 (potential) branch divergence @  PC=0x938 (_1.ptx:478) bra.uni $L_7_7938;
GPGPU-Sim PTX:    immediate post dominator      @  PC=0x960 (_1.ptx:486) selp.s32 %r10, 1, 0, %p11;
GPGPU-Sim PTX: ... end of reconvergence points for _Z12notShadowRayP4Node6float3S1_f
GPGPU-Sim PTX: ... done pre-decoding instructions for '_Z12notShadowRayP4Node6float3S1_f'.
GPGPU-Sim PTX: instruction assembly for function '_Z15float2int_pow20f'...   done.
GPGPU-Sim PTX: finding reconvergence points for '_Z15float2int_pow20f'...
GPGPU-Sim PTX: Finding dominators for '_Z15float2int_pow20f'...
GPGPU-Sim PTX: Finding immediate dominators for '_Z15float2int_pow20f'...
GPGPU-Sim PTX: Finding postdominators for '_Z15float2int_pow20f'...
GPGPU-Sim PTX: Finding immediate postdominators for '_Z15float2int_pow20f'...
GPGPU-Sim PTX: pre-decoding instructions for '_Z15float2int_pow20f'...
GPGPU-Sim PTX: reconvergence points for _Z15float2int_pow20f...
GPGPU-Sim PTX: ... end of reconvergence points for _Z15float2int_pow20f
GPGPU-Sim PTX: ... done pre-decoding instructions for '_Z15float2int_pow20f'.
GPGPU-Sim PTX: instruction assembly for function '_Z15float2int_pow50f'...   done.
GPGPU-Sim PTX: finding reconvergence points for '_Z15float2int_pow50f'...
GPGPU-Sim PTX: Finding dominators for '_Z15float2int_pow50f'...
GPGPU-Sim PTX: Finding immediate dominators for '_Z15float2int_pow50f'...
GPGPU-Sim PTX: Finding postdominators for '_Z15float2int_pow50f'...
GPGPU-Sim PTX: Finding immediate postdominators for '_Z15float2int_pow50f'...
GPGPU-Sim PTX: pre-decoding instructions for '_Z15float2int_pow50f'...
GPGPU-Sim PTX: reconvergence points for _Z15float2int_pow50f...
GPGPU-Sim PTX: ... end of reconvergence points for _Z15float2int_pow50f
GPGPU-Sim PTX: ... done pre-decoding instructions for '_Z15float2int_pow50f'.
GPGPU-Sim PTX: allocating constant region for "MView" from 0x200 to 0x230 (global memory space) 1
GPGPU-Sim PTX: allocating stack frame region for .local "__cuda___cuda_local_var_36873_9_non_const_pile_32240" from 0x0 to 0x50
GPGPU-Sim PTX: instruction assembly for function '_Z6renderPjP4Nodejjff'...   done.
GPGPU-Sim PTX: finding reconvergence points for '_Z6renderPjP4Nodejjff'...
GPGPU-Sim PTX: Finding dominators for '_Z6renderPjP4Nodejjff'...
GPGPU-Sim PTX: Finding immediate dominators for '_Z6renderPjP4Nodejjff'...
GPGPU-Sim PTX: Finding postdominators for '_Z6renderPjP4Nodejjff'...
GPGPU-Sim PTX: Finding immediate postdominators for '_Z6renderPjP4Nodejjff'...
GPGPU-Sim PTX: pre-decoding instructions for '_Z6renderPjP4Nodejjff'...
GPGPU-Sim PTX: reconvergence points for _Z6renderPjP4Nodejjff...
GPGPU-Sim PTX:  1 (potential) branch divergence @  PC=0xdb0 (_1.ptx:663) @%p1 bra $Lt_10_44034;
GPGPU-Sim PTX:    immediate post dominator      @  PC=0x2370 (_1.ptx:1495) exit;
GPGPU-Sim PTX:  2 (potential) branch divergence @  PC=0x1028 (_1.ptx:751) @%p2 bra $Lt_10_45570;
GPGPU-Sim PTX:    immediate post dominator      @  PC=0x11b8 (_1.ptx:815) mov.f32 %f108, 0f00000000;   // 0
GPGPU-Sim PTX:  3 (potential) branch divergence @  PC=0x1048 (_1.ptx:756) @!%p3 bra $Lt_10_46082;
GPGPU-Sim PTX:    immediate post dominator      @  PC=0x1090 (_1.ptx:769) mov.f32 %f87, %f82;
GPGPU-Sim PTX:  4 (potential) branch divergence @  PC=0x1058 (_1.ptx:758) bra.uni $Lt_10_45826;
GPGPU-Sim PTX:    immediate post dominator      @  PC=0x1090 (_1.ptx:769) mov.f32 %f87, %f82;
GPGPU-Sim PTX:  5 (potential) branch divergence @  PC=0x1098 (_1.ptx:770) bra.uni $Lt_10_45314;
GPGPU-Sim PTX:    immediate post dominator      @  PC=0x11b8 (_1.ptx:815) mov.f32 %f108, 0f00000000;   // 0
GPGPU-Sim PTX:  6 (potential) branch divergence @  PC=0x1140 (_1.ptx:793) @%p6 bra $Lt_10_46594;
GPGPU-Sim PTX:    immediate post dominator      @  PC=0x11b0 (_1.ptx:813) mov.f32 %f87, %f101;
GPGPU-Sim PTX:  7 (potential) branch divergence @  PC=0x1150 (_1.ptx:795) bra.uni $Lt_10_46850;
GPGPU-Sim PTX:    immediate post dominator      @  PC=0x11b0 (_1.ptx:813) mov.f32 %f87, %f101;
GPGPU-Sim PTX:  8 (potential) branch divergence @  PC=0x1170 (_1.ptx:800) @!%p7 bra $Lt_10_47106;
GPGPU-Sim PTX:    immediate post dominator      @  PC=0x11b0 (_1.ptx:813) mov.f32 %f87, %f101;
GPGPU-Sim PTX:  9 (potential) branch divergence @  PC=0x1180 (_1.ptx:802) bra.uni $Lt_10_46850;
GPGPU-Sim PTX:    immediate post dominator      @  PC=0x11b0 (_1.ptx:813) mov.f32 %f87, %f101;
GPGPU-Sim PTX: 10 (potential) branch divergence @  PC=0x11f8 (_1.ptx:823) @%p8 bra $Lt_10_47362;
GPGPU-Sim PTX:    immediate post dominator      @  PC=0x1210 (_1.ptx:829) add.s32 %r25, %r25, 1;
GPGPU-Sim PTX: 11 (potential) branch divergence @  PC=0x1230 (_1.ptx:833) @%p9 bra $Lt_10_45058;
GPGPU-Sim PTX:    immediate post dominator      @  PC=0x1238 (_1.ptx:834) mov.f32 %f109, 0f00000000;   // 0
GPGPU-Sim PTX: 12 (potential) branch divergence @  PC=0x1280 (_1.ptx:843) @%p10 bra $Lt_10_48130;
GPGPU-Sim PTX:    immediate post dominator      @  PC=0x2140 (_1.ptx:1416) add.s32 %r23, %r23, 1;
GPGPU-Sim PTX: 13 (potential) branch divergence @  PC=0x1330 (_1.ptx:868) @%p11 bra $Lt_10_48898;
GPGPU-Sim PTX:    immediate post dominator      @  PC=0x13b8 (_1.ptx:888) sub.f32 %f136, %f21, %f119;
GPGPU-Sim PTX: 14 (potential) branch divergence @  PC=0x1350 (_1.ptx:873) bra.uni $Lt_10_48642;
GPGPU-Sim PTX:    immediate post dominator      @  PC=0x13b8 (_1.ptx:888) sub.f32 %f136, %f21, %f119;
GPGPU-Sim PTX: 15 (potential) branch divergence @  PC=0x1430 (_1.ptx:903) @!%p12 bra $Lt_10_49410;
GPGPU-Sim PTX:    immediate post dominator      @  PC=0x1470 (_1.ptx:915) mov.f32 %f153, 0f3d4ccccd;   // 0.05
GPGPU-Sim PTX: 16 (potential) branch divergence @  PC=0x1450 (_1.ptx:908) bra.uni $Lt_10_49154;
GPGPU-Sim PTX:    immediate post dominator      @  PC=0x1470 (_1.ptx:915) mov.f32 %f153, 0f3d4ccccd;   // 0.05
GPGPU-Sim PTX: 17 (potential) branch divergence @  PC=0x1578 (_1.ptx:949) @!%p13 bra $Lt_10_58114;
GPGPU-Sim PTX:    immediate post dominator      @  PC=0x2080 (_1.ptx:1388) add.f32 %f399, %f126, %f126;
GPGPU-Sim PTX: 18 (potential) branch divergence @  PC=0x15c0 (_1.ptx:961) @%p14 bra $Lt_10_49922;
GPGPU-Sim PTX:    immediate post dominator      @  PC=0x17b0 (_1.ptx:1039) mov.f32 %f221, 0f00000000;   // 0
GPGPU-Sim PTX: 19 (potential) branch divergence @  PC=0x15e0 (_1.ptx:966) @!%p15 bra $Lt_10_50434;
GPGPU-Sim PTX:    immediate post dominator      @  PC=0x1638 (_1.ptx:982) mov.f32 %f190, %f183;
GPGPU-Sim PTX: 20 (potential) branch divergence @  PC=0x15f0 (_1.ptx:968) bra.uni $Lt_10_50178;
GPGPU-Sim PTX:    immediate post dominator      @  PC=0x1638 (_1.ptx:982) mov.f32 %f190, %f183;
GPGPU-Sim PTX: 21 (potential) branch divergence @  PC=0x1640 (_1.ptx:983) bra.uni $Lt_10_49666;
GPGPU-Sim PTX:    immediate post dominator      @  PC=0x17b0 (_1.ptx:1039) mov.f32 %f221, 0f00000000;   // 0
GPGPU-Sim PTX: 22 (potential) branch divergence @  PC=0x1738 (_1.ptx:1016) @%p18 bra $Lt_10_50946;
GPGPU-Sim PTX:    immediate post dominator      @  PC=0x17a8 (_1.ptx:1036) mov.f32 %f190, %f214;
GPGPU-Sim PTX: 23 (potential) branch divergence @  PC=0x1748 (_1.ptx:1018) bra.uni $Lt_10_51202;
GPGPU-Sim PTX:    immediate post dominator      @  PC=0x17a8 (_1.ptx:1036) mov.f32 %f190, %f214;
GPGPU-Sim PTX: 24 (potential) branch divergence @  PC=0x1768 (_1.ptx:1023) @!%p19 bra $Lt_10_51458;
GPGPU-Sim PTX:    immediate post dominator      @  PC=0x17a8 (_1.ptx:1036) mov.f32 %f190, %f214;
GPGPU-Sim PTX: 25 (potential) branch divergence @  PC=0x1778 (_1.ptx:1025) bra.uni $Lt_10_51202;
GPGPU-Sim PTX:    immediate post dominator      @  PC=0x17a8 (_1.ptx:1036) mov.f32 %f190, %f214;
GPGPU-Sim PTX: 26 (potential) branch divergence @  PC=0x17c0 (_1.ptx:1041) @!%p20 bra $Lt_10_58370;
GPGPU-Sim PTX:    immediate post dominator      @  PC=0x1828 (_1.ptx:1057) add.s32 %r50, %r50, 1;
GPGPU-Sim PTX: 27 (potential) branch divergence @  PC=0x1818 (_1.ptx:1052) @!%p21 bra $Lt_10_58370;
GPGPU-Sim PTX:    immediate post dominator      @  PC=0x1828 (_1.ptx:1057) add.s32 %r50, %r50, 1;
GPGPU-Sim PTX: 28 (potential) branch divergence @  PC=0x1848 (_1.ptx:1061) @%p22 bra $Lt_10_58882;
GPGPU-Sim PTX:    immediate post dominator      @  PC=0x1880 (_1.ptx:1071) @!%p23 bra $Lt_10_58114;
GPGPU-Sim PTX: 29 (potential) branch divergence @  PC=0x1860 (_1.ptx:1064) @%p23 bra $L_10_42498;
GPGPU-Sim PTX:    immediate post dominator      @  PC=0x1880 (_1.ptx:1071) @!%p23 bra $Lt_10_58114;
GPGPU-Sim PTX: 30 (potential) branch divergence @  PC=0x1868 (_1.ptx:1065) bra.uni $L_10_43266;
GPGPU-Sim PTX:    immediate post dominator      @  PC=0x1880 (_1.ptx:1071) @!%p23 bra $Lt_10_58114;
GPGPU-Sim PTX: 31 (potential) branch divergence @  PC=0x1880 (_1.ptx:1071) @!%p23 bra $Lt_10_58114;
GPGPU-Sim PTX:    immediate post dominator      @  PC=0x2080 (_1.ptx:1388) add.f32 %f399, %f126, %f126;
GPGPU-Sim PTX: 32 (potential) branch divergence @  PC=0x19c8 (_1.ptx:1115) @!%p24 bra $Lt_10_51714;
GPGPU-Sim PTX:    immediate post dominator      @  PC=0x2040 (_1.ptx:1375) mov.f32 %f394, 0f3f4ccccd;   // 0.8
GPGPU-Sim PTX: 33 (potential) branch divergence @  PC=0x19d8 (_1.ptx:1118) bra.uni $LDWendi___isnanf_192_1;
GPGPU-Sim PTX:    immediate post dominator      @  PC=0x2040 (_1.ptx:1375) mov.f32 %f394, 0f3f4ccccd;   // 0.8
GPGPU-Sim PTX: 34 (potential) branch divergence @  PC=0x19f8 (_1.ptx:1124) @!%p25 bra $Lt_10_7682;
GPGPU-Sim PTX:    immediate post dominator      @  PC=0x2040 (_1.ptx:1375) mov.f32 %f394, 0f3f4ccccd;   // 0.8
GPGPU-Sim PTX: 35 (potential) branch divergence @  PC=0x1a00 (_1.ptx:1125) bra.uni $Lt_10_7938;
GPGPU-Sim PTX:    immediate post dominator      @  PC=0x1a20 (_1.ptx:1133) mov.f32 %f272, 0f7f800000;   // ((1.0F)/(0.0F))
GPGPU-Sim PTX: 36 (potential) branch divergence @  PC=0x1a18 (_1.ptx:1130) bra.uni $LDWendi___isnanf_192_1;
GPGPU-Sim PTX:    immediate post dominator      @  PC=0x2040 (_1.ptx:1375) mov.f32 %f394, 0f3f4ccccd;   // 0.8
GPGPU-Sim PTX: 37 (potential) branch divergence @  PC=0x1a30 (_1.ptx:1135) @!%p26 bra $Lt_10_52226;
GPGPU-Sim PTX:    immediate post dominator      @  PC=0x2040 (_1.ptx:1375) mov.f32 %f394, 0f3f4ccccd;   // 0.8
GPGPU-Sim PTX: 38 (potential) branch divergence @  PC=0x1a40 (_1.ptx:1138) bra.uni $LDWendi___isnanf_192_1;
GPGPU-Sim PTX:    immediate post dominator      @  PC=0x2040 (_1.ptx:1375) mov.f32 %f394, 0f3f4ccccd;   // 0.8
GPGPU-Sim PTX: 39 (potential) branch divergence @  PC=0x1a58 (_1.ptx:1142) @!%p27 bra $Lt_10_52738;
GPGPU-Sim PTX:    immediate post dominator      @  PC=0x2040 (_1.ptx:1375) mov.f32 %f394, 0f3f4ccccd;   // 0.8
GPGPU-Sim PTX: 40 (potential) branch divergence @  PC=0x1ab8 (_1.ptx:1155) bra.uni $LDWendi___isnanf_192_1;
GPGPU-Sim PTX:    immediate post dominator      @  PC=0x2040 (_1.ptx:1375) mov.f32 %f394, 0f3f4ccccd;   // 0.8
GPGPU-Sim PTX: 41 (potential) branch divergence @  PC=0x1ad0 (_1.ptx:1159) @!%p29 bra $Lt_10_53250;
GPGPU-Sim PTX:    immediate post dominator      @  PC=0x2040 (_1.ptx:1375) mov.f32 %f394, 0f3f4ccccd;   // 0.8
GPGPU-Sim PTX: 42 (potential) branch divergence @  PC=0x1b20 (_1.ptx:1170) @!%p30 bra $Lt_10_53762;
GPGPU-Sim PTX:    immediate post dominator      @  PC=0x1b40 (_1.ptx:1177) mov.f32 %f268, %f284;
GPGPU-Sim PTX: 43 (potential) branch divergence @  PC=0x1b48 (_1.ptx:1178) bra.uni $LDWendi___isnanf_192_1;
GPGPU-Sim PTX:    immediate post dominator      @  PC=0x2040 (_1.ptx:1375) mov.f32 %f394, 0f3f4ccccd;   // 0.8
GPGPU-Sim PTX: 44 (potential) branch divergence @  PC=0x1b60 (_1.ptx:1183) @!%p31 bra $Lt_10_59394;
GPGPU-Sim PTX:    immediate post dominator      @  PC=0x2040 (_1.ptx:1375) mov.f32 %f394, 0f3f4ccccd;   // 0.8
GPGPU-Sim PTX: 45 (potential) branch divergence @  PC=0x1b88 (_1.ptx:1188) @!%p32 bra $Lt_10_59394;
GPGPU-Sim PTX:    immediate post dominator      @  PC=0x2040 (_1.ptx:1375) mov.f32 %f394, 0f3f4ccccd;   // 0.8
GPGPU-Sim PTX: 46 (potential) branch divergence @  PC=0x1ba0 (_1.ptx:1192) bra.uni $LDWendi___isnanf_192_1;
GPGPU-Sim PTX:    immediate post dominator      @  PC=0x2040 (_1.ptx:1375) mov.f32 %f394, 0f3f4ccccd;   // 0.8
GPGPU-Sim PTX: 47 (potential) branch divergence @  PC=0x1bd8 (_1.ptx:1202) @%p33 bra $Lt_10_54530;
GPGPU-Sim PTX:    immediate post dominator      @  PC=0x1c20 (_1.ptx:1216) sub.s32 %r64, %r64, 127;
GPGPU-Sim PTX: 48 (potential) branch divergence @  PC=0x1c10 (_1.ptx:1211) bra.uni $Lt_10_54274;
GPGPU-Sim PTX:    immediate post dominator      @  PC=0x1c20 (_1.ptx:1216) sub.s32 %r64, %r64, 127;
GPGPU-Sim PTX: 49 (potential) branch divergence @  PC=0x1c58 (_1.ptx:1224) @!%p34 bra $Lt_10_54786;
GPGPU-Sim PTX:    immediate post dominator      @  PC=0x1c78 (_1.ptx:1232) mov.f32 %f302, 0fbf800000;   // -1
GPGPU-Sim PTX: 50 (potential) branch divergence @  PC=0x1eb0 (_1.ptx:1312) @%p35 bra $Lt_10_55298;
GPGPU-Sim PTX:    immediate post dominator      @  PC=0x1ed8 (_1.ptx:1321) mov.f32 %f367, %f365;
GPGPU-Sim PTX: 51 (potential) branch divergence @  PC=0x1f98 (_1.ptx:1346) @!%p38 bra $Lt_10_55810;
GPGPU-Sim PTX:    immediate post dominator      @  PC=0x1fa8 (_1.ptx:1351) mov.f32 %f284, %f386;
GPGPU-Sim PTX: 52 (potential) branch divergence @  PC=0x2018 (_1.ptx:1365) @%p39 bra $Lt_10_56322;
GPGPU-Sim PTX:    immediate post dominator      @  PC=0x2038 (_1.ptx:1372) mov.f32 %f268, %f284;
GPGPU-Sim PTX: 53 (potential) branch divergence @  PC=0x2158 (_1.ptx:1419) @%p40 bra $L_10_42242;
GPGPU-Sim PTX:    immediate post dominator      @  PC=0x2170 (_1.ptx:1424) sub.s32 %r86, %r24, 1;
GPGPU-Sim PTX: 54 (potential) branch divergence @  PC=0x2168 (_1.ptx:1421) @%p41 bra $L_10_41474;
GPGPU-Sim PTX:    immediate post dominator      @  PC=0x2170 (_1.ptx:1424) sub.s32 %r86, %r24, 1;
GPGPU-Sim PTX: 55 (potential) branch divergence @  PC=0x2190 (_1.ptx:1428) @%p42 bra $Lt_10_56834;
GPGPU-Sim PTX:    immediate post dominator      @  PC=0x2288 (_1.ptx:1464) ld.global.u32 %r92, [%rd4+0];
GPGPU-Sim PTX: 56 (potential) branch divergence @  PC=0x2280 (_1.ptx:1461) @%p43 bra $Lt_10_57346;
GPGPU-Sim PTX:    immediate post dominator      @  PC=0x2288 (_1.ptx:1464) ld.global.u32 %r92, [%rd4+0];
GPGPU-Sim PTX: ... end of reconvergence points for _Z6renderPjP4Nodejjff
GPGPU-Sim PTX: ... done pre-decoding instructions for '_Z6renderPjP4Nodejjff'.
GPGPU-Sim PTX: instruction assembly for function '_ZN4dim3C1Ejjj'...   done.
GPGPU-Sim PTX: finding reconvergence points for '_ZN4dim3C1Ejjj'...
GPGPU-Sim PTX: Finding dominators for '_ZN4dim3C1Ejjj'...
GPGPU-Sim PTX: Finding immediate dominators for '_ZN4dim3C1Ejjj'...
GPGPU-Sim PTX: Finding postdominators for '_ZN4dim3C1Ejjj'...
GPGPU-Sim PTX: Finding immediate postdominators for '_ZN4dim3C1Ejjj'...
GPGPU-Sim PTX: pre-decoding instructions for '_ZN4dim3C1Ejjj'...
GPGPU-Sim PTX: reconvergence points for _ZN4dim3C1Ejjj...
GPGPU-Sim PTX: ... end of reconvergence points for _ZN4dim3C1Ejjj
GPGPU-Sim PTX: ... done pre-decoding instructions for '_ZN4dim3C1Ejjj'.
GPGPU-Sim PTX: finished parsing EMBEDDED .ptx file _1.ptx
Adding _cuobjdump_2.ptx with cubin handle 1
GPGPU-Sim PTX: extracting embedded .ptx to temporary file "_ptx_CcnD8t"
Running: cat _ptx_CcnD8t | sed 's/.version 1.5/.version 1.4/' | sed 's/, texmode_independent//' | sed 's/\(\.extern \.const\[1\] .b8 \w\+\)\[\]/\1\[1\]/' | sed 's/const\[.\]/const\[0\]/g' > _ptx2_K2rHjR
GPGPU-Sim PTX: generating ptxinfo using "$CUDA_INSTALL_PATH/bin/ptxas --gpu-name=sm_20 -v _ptx2_K2rHjR --output-file  /dev/null 2> _ptx_CcnD8tinfo"
GPGPU-Sim PTX: Kernel '_Z6renderPjP4Nodejjff' : regs=45, lmem=4, smem=0, cmem=180
GPGPU-Sim PTX: removing ptxinfo using "rm -f _ptx_CcnD8t _ptx2_K2rHjR _ptx_CcnD8tinfo"
GPGPU-Sim PTX: loading globals with explicit initializers... 
GPGPU-Sim PTX: finished loading globals (0 bytes total).
GPGPU-Sim PTX: loading constants with explicit initializers...  done.
GPGPU-Sim PTX: __cudaRegisterVar: hostVar = 0x636760; deviceAddress = MView; deviceName = MView
GPGPU-Sim PTX: __cudaRegisterVar: Registering const memory space of 48 bytes
GPGPU-Sim PTX registering constant MView (48 bytes) to name mapping
GPGPU-Sim PTX: __cudaRegisterVar: hostVar = 0x6367a0; deviceAddress = cnode; deviceName = cnode
GPGPU-Sim PTX: __cudaRegisterVar: Registering const memory space of 160 bytes
GPGPU-Sim PTX registering constant cnode (160 bytes) to name mapping
GPGPU-Sim PTX: cudaMemcpyToSymbol: symbol = 0x6367a0
GPGPU-Sim PTX: starting gpgpu_ptx_sim_memcpy_symbol with hostVar 0x0x6367a0
GPGPU-Sim PTX: gpgpu_ptx_sim_memcpy_symbol: Found PTX symbol w/ hostVar=0x6367a0
GPGPU-Sim PTX: gpgpu_ptx_sim_memcpy_symbol: copying const memory 160 bytes  to  symbol cnode+0 @0x100 ...
GPGPU-Sim PTX: cudaMemcpyToSymbol: symbol = 0x636760
GPGPU-Sim PTX: starting gpgpu_ptx_sim_memcpy_symbol with hostVar 0x0x636760
GPGPU-Sim PTX: gpgpu_ptx_sim_memcpy_symbol: Found PTX symbol w/ hostVar=0x636760
GPGPU-Sim PTX: gpgpu_ptx_sim_memcpy_symbol: copying const memory 48 bytes  to  symbol MView+0 @0x200 ...

GPGPU-Sim PTX: cudaLaunch for 0x0x40a280 (mode=performance simulation) on stream 0
GPGPU-Sim PTX: pushing kernel '_Z6renderPjP4Nodejjff' to stream 0, gridDim= (16,32,1) blockDim = (16,8,1) 
kernel '_Z6renderPjP4Nodejjff' transfer to GPU hardware scheduler
GPGPU-Sim uArch: Shader 1 bind to kernel 1 '_Z6renderPjP4Nodejjff'
GPGPU-Sim uArch: CTA/core = 2, limited by: regs
GPGPU-Sim uArch: core:  1, cta: 0 initialized @(1,0)
GPGPU-Sim uArch: Shader 2 bind to kernel 1 '_Z6renderPjP4Nodejjff'
GPGPU-Sim uArch: core:  2, cta: 0 initialized @(1,0)
GPGPU-Sim uArch: Shader 3 bind to kernel 1 '_Z6renderPjP4Nodejjff'
GPGPU-Sim uArch: core:  3, cta: 0 initialized @(1,0)
GPGPU-Sim uArch: Shader 4 bind to kernel 1 '_Z6renderPjP4Nodejjff'
GPGPU-Sim uArch: core:  4, cta: 0 initialized @(1,0)
GPGPU-Sim uArch: Shader 5 bind to kernel 1 '_Z6renderPjP4Nodejjff'
GPGPU-Sim uArch: core:  5, cta: 0 initialized @(1,0)
GPGPU-Sim uArch: Shader 6 bind to kernel 1 '_Z6renderPjP4Nodejjff'
GPGPU-Sim uArch: core:  6, cta: 0 initialized @(1,0)
GPGPU-Sim uArch: Shader 7 bind to kernel 1 '_Z6renderPjP4Nodejjff'
GPGPU-Sim uArch: core:  7, cta: 0 initialized @(1,0)
GPGPU-Sim uArch: Shader 8 bind to kernel 1 '_Z6renderPjP4Nodejjff'
GPGPU-Sim uArch: core:  8, cta: 0 initialized @(1,0)
GPGPU-Sim uArch: Shader 9 bind to kernel 1 '_Z6renderPjP4Nodejjff'
GPGPU-Sim uArch: core:  9, cta: 0 initialized @(1,0)
GPGPU-Sim uArch: Shader 10 bind to kernel 1 '_Z6renderPjP4Nodejjff'
GPGPU-Sim uArch: core: 10, cta: 0 initialized @(1,0)
GPGPU-Sim uArch: Shader 11 bind to kernel 1 '_Z6renderPjP4Nodejjff'
GPGPU-Sim uArch: core: 11, cta: 0 initialized @(1,0)
GPGPU-Sim uArch: Shader 12 bind to kernel 1 '_Z6renderPjP4Nodejjff'
GPGPU-Sim uArch: core: 12, cta: 0 initialized @(1,0)
GPGPU-Sim uArch: Shader 13 bind to kernel 1 '_Z6renderPjP4Nodejjff'
GPGPU-Sim uArch: core: 13, cta: 0 initialized @(1,0)
GPGPU-Sim uArch: Shader 14 bind to kernel 1 '_Z6renderPjP4Nodejjff'
GPGPU-Sim uArch: core: 14, cta: 0 initialized @(1,0)
GPGPU-Sim uArch: Shader 0 bind to kernel 1 '_Z6renderPjP4Nodejjff'
GPGPU-Sim uArch: core:  0, cta: 0 initialized @(1,0)
GPGPU-Sim uArch: core:  1, cta: 1 initialized @(2,0)
GPGPU-Sim uArch: core:  2, cta: 1 initialized @(2,0)
GPGPU-Sim uArch: core:  3, cta: 1 initialized @(2,0)
GPGPU-Sim uArch: core:  4, cta: 1 initialized @(2,0)
GPGPU-Sim uArch: core:  5, cta: 1 initialized @(2,0)
GPGPU-Sim uArch: core:  6, cta: 1 initialized @(2,0)
GPGPU-Sim uArch: core:  7, cta: 1 initialized @(2,0)
GPGPU-Sim uArch: core:  8, cta: 1 initialized @(2,0)
GPGPU-Sim uArch: core:  9, cta: 1 initialized @(2,0)
GPGPU-Sim uArch: core: 10, cta: 1 initialized @(2,0)
GPGPU-Sim uArch: core: 11, cta: 1 initialized @(2,0)
GPGPU-Sim uArch: core: 12, cta: 1 initialized @(2,0)
GPGPU-Sim uArch: core: 13, cta: 1 initialized @(2,0)
GPGPU-Sim uArch: core: 14, cta: 1 initialized @(2,0)
GPGPU-Sim uArch: core:  0, cta: 1 initialized @(2,0)
GPGPU-Sim uArch: cycles simulated: 500  inst.: 21632 (ipc=43.3) sim_rate=21632 (inst/sec) elapsed = 0:0:00:01 / Tue May 12 17:37:01 2015
GPGPU-Sim uArch: cycles simulated: 1000  inst.: 47872 (ipc=47.9) sim_rate=23936 (inst/sec) elapsed = 0:0:00:02 / Tue May 12 17:37:02 2015
GPGPU-Sim uArch: cycles simulated: 2000  inst.: 67840 (ipc=33.9) sim_rate=22613 (inst/sec) elapsed = 0:0:00:03 / Tue May 12 17:37:03 2015
GPGPU-Sim uArch: cycles simulated: 2500  inst.: 83968 (ipc=33.6) sim_rate=20992 (inst/sec) elapsed = 0:0:00:04 / Tue May 12 17:37:04 2015
GPGPU-Sim PTX: 100000 instructions simulated : ctaid=(6,0,0) tid=(15,1,0)
GPGPU-Sim uArch: cycles simulated: 3000  inst.: 96384 (ipc=32.1) sim_rate=19276 (inst/sec) elapsed = 0:0:00:05 / Tue May 12 17:37:05 2015
GPGPU-Sim uArch: cycles simulated: 4000  inst.: 135680 (ipc=33.9) sim_rate=22613 (inst/sec) elapsed = 0:0:00:06 / Tue May 12 17:37:06 2015
GPGPU-Sim uArch: cycles simulated: 4500  inst.: 151552 (ipc=33.7) sim_rate=21650 (inst/sec) elapsed = 0:0:00:07 / Tue May 12 17:37:07 2015
GPGPU-Sim uArch: cycles simulated: 5000  inst.: 177536 (ipc=35.5) sim_rate=22192 (inst/sec) elapsed = 0:0:00:08 / Tue May 12 17:37:08 2015
GPGPU-Sim PTX: 200000 instructions simulated : ctaid=(6,1,0) tid=(15,3,0)
GPGPU-Sim uArch: cycles simulated: 5500  inst.: 216064 (ipc=39.3) sim_rate=24007 (inst/sec) elapsed = 0:0:00:09 / Tue May 12 17:37:09 2015
GPGPU-Sim uArch: cycles simulated: 6000  inst.: 268800 (ipc=44.8) sim_rate=26880 (inst/sec) elapsed = 0:0:00:10 / Tue May 12 17:37:10 2015
GPGPU-Sim PTX: 300000 instructions simulated : ctaid=(5,1,0) tid=(15,5,0)
GPGPU-Sim uArch: cycles simulated: 6500  inst.: 344320 (ipc=53.0) sim_rate=31301 (inst/sec) elapsed = 0:0:00:11 / Tue May 12 17:37:11 2015
GPGPU-Sim PTX: 400000 instructions simulated : ctaid=(11,1,0) tid=(15,7,0)
GPGPU-Sim uArch: cycles simulated: 7000  inst.: 428800 (ipc=61.3) sim_rate=35733 (inst/sec) elapsed = 0:0:00:12 / Tue May 12 17:37:12 2015
GPGPU-Sim PTX: 500000 instructions simulated : ctaid=(10,0,0) tid=(15,1,0)
GPGPU-Sim uArch: cycles simulated: 7500  inst.: 539648 (ipc=72.0) sim_rate=41511 (inst/sec) elapsed = 0:0:00:13 / Tue May 12 17:37:13 2015
GPGPU-Sim uArch: cycles simulated: 8000  inst.: 574336 (ipc=71.8) sim_rate=41024 (inst/sec) elapsed = 0:0:00:14 / Tue May 12 17:37:14 2015
GPGPU-Sim PTX: 600000 instructions simulated : ctaid=(5,1,0) tid=(15,3,0)
GPGPU-Sim PTX: 700000 instructions simulated : ctaid=(9,1,0) tid=(15,5,0)
GPGPU-Sim uArch: cycles simulated: 8500  inst.: 706560 (ipc=83.1) sim_rate=44160 (inst/sec) elapsed = 0:0:00:16 / Tue May 12 17:37:16 2015
GPGPU-Sim PTX: 800000 instructions simulated : ctaid=(13,0,0) tid=(15,7,0)
GPGPU-Sim PTX: 900000 instructions simulated : ctaid=(10,0,0) tid=(15,1,0)
GPGPU-Sim uArch: cycles simulated: 9000  inst.: 945408 (ipc=105.0) sim_rate=52522 (inst/sec) elapsed = 0:0:00:18 / Tue May 12 17:37:18 2015
GPGPU-Sim PTX: 1000000 instructions simulated : ctaid=(6,1,0) tid=(15,3,0)
GPGPU-Sim PTX: 1100000 instructions simulated : ctaid=(11,0,0) tid=(15,5,0)
GPGPU-Sim uArch: cycles simulated: 9500  inst.: 1141120 (ipc=120.1) sim_rate=54339 (inst/sec) elapsed = 0:0:00:21 / Tue May 12 17:37:21 2015
GPGPU-Sim PTX: 1200000 instructions simulated : ctaid=(9,1,0) tid=(15,7,0)
GPGPU-Sim PTX: 1300000 instructions simulated : ctaid=(4,0,0) tid=(15,1,0)
GPGPU-Sim uArch: cycles simulated: 10000  inst.: 1282560 (ipc=128.3) sim_rate=58298 (inst/sec) elapsed = 0:0:00:22 / Tue May 12 17:37:22 2015
GPGPU-Sim uArch: cycles simulated: 10500  inst.: 1328128 (ipc=126.5) sim_rate=57744 (inst/sec) elapsed = 0:0:00:23 / Tue May 12 17:37:23 2015
GPGPU-Sim PTX: 1400000 instructions simulated : ctaid=(9,0,0) tid=(15,3,0)
GPGPU-Sim uArch: cycles simulated: 11000  inst.: 1405440 (ipc=127.8) sim_rate=58560 (inst/sec) elapsed = 0:0:00:24 / Tue May 12 17:37:24 2015
GPGPU-Sim PTX: 1500000 instructions simulated : ctaid=(6,1,0) tid=(15,5,0)
GPGPU-Sim uArch: cycles simulated: 11500  inst.: 1465344 (ipc=127.4) sim_rate=58613 (inst/sec) elapsed = 0:0:00:25 / Tue May 12 17:37:25 2015
GPGPU-Sim PTX: 1600000 instructions simulated : ctaid=(4,1,0) tid=(15,7,0)
GPGPU-Sim uArch: cycles simulated: 12000  inst.: 1559680 (ipc=130.0) sim_rate=57765 (inst/sec) elapsed = 0:0:00:27 / Tue May 12 17:37:27 2015
GPGPU-Sim PTX: 1700000 instructions simulated : ctaid=(13,1,0) tid=(15,1,0)
GPGPU-Sim uArch: cycles simulated: 13000  inst.: 1697920 (ipc=130.6) sim_rate=58548 (inst/sec) elapsed = 0:0:00:29 / Tue May 12 17:37:29 2015
GPGPU-Sim PTX: 1800000 instructions simulated : ctaid=(4,1,0) tid=(15,3,0)
GPGPU-Sim uArch: cycles simulated: 13500  inst.: 1762560 (ipc=130.6) sim_rate=58752 (inst/sec) elapsed = 0:0:00:30 / Tue May 12 17:37:30 2015
GPGPU-Sim PTX: 1900000 instructions simulated : ctaid=(3,1,0) tid=(3,5,0)
GPGPU-Sim PTX: 2000000 instructions simulated : ctaid=(11,0,0) tid=(3,7,0)
GPGPU-Sim PTX: 2100000 instructions simulated : ctaid=(13,1,0) tid=(3,1,0)
GPGPU-Sim uArch: cycles simulated: 14000  inst.: 2082444 (ipc=148.7) sim_rate=63104 (inst/sec) elapsed = 0:0:00:33 / Tue May 12 17:37:33 2015
GPGPU-Sim PTX: 2200000 instructions simulated : ctaid=(12,0,0) tid=(3,3,0)
GPGPU-Sim PTX: 2300000 instructions simulated : ctaid=(6,1,0) tid=(7,7,0)
GPGPU-Sim uArch: cycles simulated: 14500  inst.: 2276780 (ipc=157.0) sim_rate=63243 (inst/sec) elapsed = 0:0:00:36 / Tue May 12 17:37:36 2015
GPGPU-Sim PTX: 2400000 instructions simulated : ctaid=(10,1,0) tid=(3,5,0)
GPGPU-Sim uArch: cycles simulated: 15000  inst.: 2364844 (ipc=157.7) sim_rate=63914 (inst/sec) elapsed = 0:0:00:37 / Tue May 12 17:37:37 2015
GPGPU-Sim uArch: cycles simulated: 15500  inst.: 2417324 (ipc=156.0) sim_rate=63613 (inst/sec) elapsed = 0:0:00:38 / Tue May 12 17:37:38 2015
GPGPU-Sim PTX: 2500000 instructions simulated : ctaid=(11,1,0) tid=(3,7,0)
GPGPU-Sim uArch: cycles simulated: 16500  inst.: 2491180 (ipc=151.0) sim_rate=63876 (inst/sec) elapsed = 0:0:00:39 / Tue May 12 17:37:39 2015
GPGPU-Sim PTX: 2600000 instructions simulated : ctaid=(13,1,0) tid=(14,1,0)
GPGPU-Sim uArch: cycles simulated: 17000  inst.: 2539300 (ipc=149.4) sim_rate=63482 (inst/sec) elapsed = 0:0:00:40 / Tue May 12 17:37:40 2015
GPGPU-Sim PTX: 2700000 instructions simulated : ctaid=(9,1,0) tid=(15,7,0)
GPGPU-Sim uArch: cycles simulated: 17500  inst.: 2654244 (ipc=151.7) sim_rate=64737 (inst/sec) elapsed = 0:0:00:41 / Tue May 12 17:37:41 2015
GPGPU-Sim uArch: cycles simulated: 18000  inst.: 2723620 (ipc=151.3) sim_rate=64848 (inst/sec) elapsed = 0:0:00:42 / Tue May 12 17:37:42 2015
GPGPU-Sim PTX: 2800000 instructions simulated : ctaid=(6,0,0) tid=(15,1,0)
GPGPU-Sim uArch: cycles simulated: 18500  inst.: 2808100 (ipc=151.8) sim_rate=63820 (inst/sec) elapsed = 0:0:00:44 / Tue May 12 17:37:44 2015
GPGPU-Sim PTX: 2900000 instructions simulated : ctaid=(3,1,0) tid=(15,3,0)
GPGPU-Sim uArch: cycles simulated: 19000  inst.: 2892580 (ipc=152.2) sim_rate=64279 (inst/sec) elapsed = 0:0:00:45 / Tue May 12 17:37:45 2015
GPGPU-Sim PTX: 3000000 instructions simulated : ctaid=(10,0,0) tid=(15,5,0)
GPGPU-Sim uArch: cycles simulated: 19500  inst.: 2966436 (ipc=152.1) sim_rate=64487 (inst/sec) elapsed = 0:0:00:46 / Tue May 12 17:37:46 2015
GPGPU-Sim PTX: 3100000 instructions simulated : ctaid=(9,0,0) tid=(15,7,0)
GPGPU-Sim uArch: cycles simulated: 20000  inst.: 3061540 (ipc=153.1) sim_rate=65139 (inst/sec) elapsed = 0:0:00:47 / Tue May 12 17:37:47 2015
GPGPU-Sim PTX: 3200000 instructions simulated : ctaid=(8,1,0) tid=(15,1,0)
GPGPU-Sim uArch: cycles simulated: 20500  inst.: 3132964 (ipc=152.8) sim_rate=65270 (inst/sec) elapsed = 0:0:00:48 / Tue May 12 17:37:48 2015
GPGPU-Sim PTX: 3300000 instructions simulated : ctaid=(6,1,0) tid=(15,3,0)
GPGPU-Sim uArch: cycles simulated: 21000  inst.: 3226404 (ipc=153.6) sim_rate=64528 (inst/sec) elapsed = 0:0:00:50 / Tue May 12 17:37:50 2015
GPGPU-Sim PTX: 3400000 instructions simulated : ctaid=(3,1,0) tid=(15,5,0)
GPGPU-Sim PTX: 3500000 instructions simulated : ctaid=(3,1,0) tid=(9,5,0)
GPGPU-Sim uArch: cycles simulated: 21500  inst.: 3445700 (ipc=160.3) sim_rate=66263 (inst/sec) elapsed = 0:0:00:52 / Tue May 12 17:37:52 2015
GPGPU-Sim PTX: 3600000 instructions simulated : ctaid=(7,1,0) tid=(8,4,0)
GPGPU-Sim PTX: 3700000 instructions simulated : ctaid=(13,1,0) tid=(7,7,0)
GPGPU-Sim PTX: 3800000 instructions simulated : ctaid=(13,1,0) tid=(1,3,0)
GPGPU-Sim PTX: 3900000 instructions simulated : ctaid=(11,0,0) tid=(5,6,0)
GPGPU-Sim uArch: cycles simulated: 22000  inst.: 3818324 (ipc=173.6) sim_rate=68184 (inst/sec) elapsed = 0:0:00:56 / Tue May 12 17:37:56 2015
GPGPU-Sim PTX: 4000000 instructions simulated : ctaid=(10,1,0) tid=(14,1,0)
GPGPU-Sim uArch: cycles simulated: 22500  inst.: 3921204 (ipc=174.3) sim_rate=67606 (inst/sec) elapsed = 0:0:00:58 / Tue May 12 17:37:58 2015
GPGPU-Sim uArch: cycles simulated: 23000  inst.: 3978846 (ipc=173.0) sim_rate=67438 (inst/sec) elapsed = 0:0:00:59 / Tue May 12 17:37:59 2015
GPGPU-Sim PTX: 4100000 instructions simulated : ctaid=(11,1,0) tid=(9,1,0)
GPGPU-Sim uArch: cycles simulated: 23500  inst.: 4058376 (ipc=172.7) sim_rate=67639 (inst/sec) elapsed = 0:0:01:00 / Tue May 12 17:38:00 2015
GPGPU-Sim PTX: 4200000 instructions simulated : ctaid=(10,0,0) tid=(3,0,0)
GPGPU-Sim uArch: Shader 3 finished CTA #0 (23954,0), 1 CTAs running
GPGPU-Sim uArch: core:  3, cta: 0 initialized @(23955,0)
GPGPU-Sim uArch: Shader 4 finished CTA #1 (23962,0), 1 CTAs running
GPGPU-Sim uArch: core:  4, cta: 1 initialized @(23963,0)
GPGPU-Sim uArch: Shader 14 finished CTA #0 (23976,0), 1 CTAs running
GPGPU-Sim uArch: core: 14, cta: 0 initialized @(23977,0)
GPGPU-Sim uArch: Shader 1 finished CTA #1 (23980,0), 1 CTAs running
GPGPU-Sim uArch: core:  1, cta: 1 initialized @(23981,0)
GPGPU-Sim uArch: Shader 3 finished CTA #1 (23990,0), 1 CTAs running
GPGPU-Sim uArch: core:  3, cta: 1 initialized @(23991,0)
GPGPU-Sim uArch: Shader 2 finished CTA #0 (23994,0), 1 CTAs running
GPGPU-Sim uArch: core:  2, cta: 0 initialized @(23995,0)
GPGPU-Sim uArch: Shader 0 finished CTA #0 (23996,0), 1 CTAs running
GPGPU-Sim uArch: core:  0, cta: 0 initialized @(23997,0)
GPGPU-Sim uArch: cycles simulated: 24000  inst.: 4184955 (ipc=174.4) sim_rate=67499 (inst/sec) elapsed = 0:0:01:02 / Tue May 12 17:38:02 2015
GPGPU-Sim PTX: 4300000 instructions simulated : ctaid=(12,0,0) tid=(0,0,0)
GPGPU-Sim uArch: Shader 1 finished CTA #0 (24016,0), 1 CTAs running
GPGPU-Sim uArch: core:  1, cta: 0 initialized @(24017,0)
GPGPU-Sim uArch: Shader 2 finished CTA #1 (24026,0), 1 CTAs running
GPGPU-Sim uArch: core:  2, cta: 1 initialized @(24027,0)
GPGPU-Sim uArch: Shader 0 finished CTA #1 (24028,0), 1 CTAs running
GPGPU-Sim uArch: core:  0, cta: 1 initialized @(24029,0)
GPGPU-Sim PTX: 4400000 instructions simulated : ctaid=(5,1,0) tid=(5,3,0)
GPGPU-Sim uArch: cycles simulated: 24500  inst.: 4333664 (ipc=176.9) sim_rate=67713 (inst/sec) elapsed = 0:0:01:04 / Tue May 12 17:38:04 2015
GPGPU-Sim PTX: 4500000 instructions simulated : ctaid=(3,0,0) tid=(15,7,0)
GPGPU-Sim PTX: 4600000 instructions simulated : ctaid=(7,0,0) tid=(13,7,0)
GPGPU-Sim uArch: cycles simulated: 25000  inst.: 4480559 (ipc=179.2) sim_rate=67887 (inst/sec) elapsed = 0:0:01:06 / Tue May 12 17:38:06 2015
GPGPU-Sim PTX: 4700000 instructions simulated : ctaid=(1,2,0) tid=(14,4,0)
GPGPU-Sim uArch: cycles simulated: 25500  inst.: 4596452 (ipc=180.3) sim_rate=68603 (inst/sec) elapsed = 0:0:01:07 / Tue May 12 17:38:07 2015
GPGPU-Sim PTX: 4800000 instructions simulated : ctaid=(15,1,0) tid=(1,7,0)
GPGPU-Sim uArch: cycles simulated: 26000  inst.: 4700695 (ipc=180.8) sim_rate=68126 (inst/sec) elapsed = 0:0:01:09 / Tue May 12 17:38:09 2015
GPGPU-Sim PTX: 4900000 instructions simulated : ctaid=(6,0,0) tid=(9,6,0)
GPGPU-Sim uArch: cycles simulated: 26500  inst.: 4830406 (ipc=182.3) sim_rate=69005 (inst/sec) elapsed = 0:0:01:10 / Tue May 12 17:38:10 2015
GPGPU-Sim PTX: 5000000 instructions simulated : ctaid=(1,2,0) tid=(7,7,0)
GPGPU-Sim PTX: 5100000 instructions simulated : ctaid=(0,2,0) tid=(4,6,0)
GPGPU-Sim uArch: cycles simulated: 27000  inst.: 4975383 (ipc=184.3) sim_rate=69102 (inst/sec) elapsed = 0:0:01:12 / Tue May 12 17:38:12 2015
GPGPU-Sim PTX: 5200000 instructions simulated : ctaid=(15,1,0) tid=(1,7,0)
GPGPU-Sim uArch: cycles simulated: 27500  inst.: 5141428 (ipc=187.0) sim_rate=69478 (inst/sec) elapsed = 0:0:01:14 / Tue May 12 17:38:14 2015
GPGPU-Sim PTX: 5300000 instructions simulated : ctaid=(11,0,0) tid=(7,3,0)
GPGPU-Sim uArch: cycles simulated: 28000  inst.: 5242553 (ipc=187.2) sim_rate=68980 (inst/sec) elapsed = 0:0:01:16 / Tue May 12 17:38:16 2015
GPGPU-Sim PTX: 5400000 instructions simulated : ctaid=(6,0,0) tid=(11,6,0)
GPGPU-Sim uArch: cycles simulated: 28500  inst.: 5313617 (ipc=186.4) sim_rate=69008 (inst/sec) elapsed = 0:0:01:17 / Tue May 12 17:38:17 2015
GPGPU-Sim PTX: 5500000 instructions simulated : ctaid=(8,0,0) tid=(7,7,0)
GPGPU-Sim uArch: cycles simulated: 29000  inst.: 5395167 (ipc=186.0) sim_rate=69168 (inst/sec) elapsed = 0:0:01:18 / Tue May 12 17:38:18 2015
GPGPU-Sim PTX: 5600000 instructions simulated : ctaid=(8,1,0) tid=(12,3,0)
GPGPU-Sim uArch: cycles simulated: 29500  inst.: 5472466 (ipc=185.5) sim_rate=69271 (inst/sec) elapsed = 0:0:01:19 / Tue May 12 17:38:19 2015
GPGPU-Sim PTX: 5700000 instructions simulated : ctaid=(10,0,0) tid=(2,2,0)
GPGPU-Sim uArch: cycles simulated: 30000  inst.: 5565274 (ipc=185.5) sim_rate=68707 (inst/sec) elapsed = 0:0:01:21 / Tue May 12 17:38:21 2015
GPGPU-Sim PTX: 5800000 instructions simulated : ctaid=(4,0,0) tid=(6,7,0)
GPGPU-Sim PTX: 5900000 instructions simulated : ctaid=(7,1,0) tid=(7,0,0)
GPGPU-Sim uArch: cycles simulated: 30500  inst.: 5744728 (ipc=188.4) sim_rate=69213 (inst/sec) elapsed = 0:0:01:23 / Tue May 12 17:38:23 2015
GPGPU-Sim PTX: 6000000 instructions simulated : ctaid=(8,0,0) tid=(3,3,0)
GPGPU-Sim PTX: 6100000 instructions simulated : ctaid=(8,1,0) tid=(1,7,0)
GPGPU-Sim uArch: cycles simulated: 31000  inst.: 5946087 (ipc=191.8) sim_rate=69953 (inst/sec) elapsed = 0:0:01:25 / Tue May 12 17:38:25 2015
GPGPU-Sim PTX: 6200000 instructions simulated : ctaid=(6,0,0) tid=(2,3,0)
GPGPU-Sim uArch: cycles simulated: 31500  inst.: 6039364 (ipc=191.7) sim_rate=69417 (inst/sec) elapsed = 0:0:01:27 / Tue May 12 17:38:27 2015
GPGPU-Sim uArch: cycles simulated: 32000  inst.: 6102082 (ipc=190.7) sim_rate=69341 (inst/sec) elapsed = 0:0:01:28 / Tue May 12 17:38:28 2015
GPGPU-Sim PTX: 6300000 instructions simulated : ctaid=(11,0,0) tid=(4,0,0)
GPGPU-Sim uArch: cycles simulated: 32500  inst.: 6201659 (ipc=190.8) sim_rate=69681 (inst/sec) elapsed = 0:0:01:29 / Tue May 12 17:38:29 2015
GPGPU-Sim PTX: 6400000 instructions simulated : ctaid=(9,1,0) tid=(0,2,0)
GPGPU-Sim uArch: Shader 6 finished CTA #1 (32987,0), 1 CTAs running
GPGPU-Sim uArch: core:  6, cta: 1 initialized @(32988,0)
GPGPU-Sim uArch: cycles simulated: 33000  inst.: 6287709 (ipc=190.5) sim_rate=69863 (inst/sec) elapsed = 0:0:01:30 / Tue May 12 17:38:30 2015
GPGPU-Sim PTX: 6500000 instructions simulated : ctaid=(14,1,0) tid=(13,5,0)
GPGPU-Sim uArch: cycles simulated: 33500  inst.: 6369742 (ipc=190.1) sim_rate=69236 (inst/sec) elapsed = 0:0:01:32 / Tue May 12 17:38:32 2015
GPGPU-Sim PTX: 6600000 instructions simulated : ctaid=(6,0,0) tid=(12,4,0)
GPGPU-Sim uArch: cycles simulated: 34000  inst.: 6473573 (ipc=190.4) sim_rate=69608 (inst/sec) elapsed = 0:0:01:33 / Tue May 12 17:38:33 2015
GPGPU-Sim PTX: 6700000 instructions simulated : ctaid=(6,2,0) tid=(8,7,0)
GPGPU-Sim uArch: Shader 13 finished CTA #0 (34337,0), 1 CTAs running
GPGPU-Sim uArch: core: 13, cta: 0 initialized @(34338,0)
GPGPU-Sim uArch: Shader 13 finished CTA #1 (34370,0), 1 CTAs running
GPGPU-Sim uArch: core: 13, cta: 1 initialized @(34371,0)
GPGPU-Sim uArch: cycles simulated: 34500  inst.: 6546845 (ipc=189.8) sim_rate=69647 (inst/sec) elapsed = 0:0:01:34 / Tue May 12 17:38:34 2015
GPGPU-Sim uArch: Shader 5 finished CTA #1 (34716,0), 1 CTAs running
GPGPU-Sim uArch: core:  5, cta: 1 initialized @(34717,0)
GPGPU-Sim uArch: Shader 14 finished CTA #0 (34809,0), 1 CTAs running
GPGPU-Sim uArch: core: 14, cta: 0 initialized @(34810,0)
GPGPU-Sim uArch: cycles simulated: 35000  inst.: 6615712 (ipc=189.0) sim_rate=68913 (inst/sec) elapsed = 0:0:01:36 / Tue May 12 17:38:36 2015
GPGPU-Sim PTX: 6800000 instructions simulated : ctaid=(3,0,0) tid=(6,4,0)
GPGPU-Sim uArch: Shader 4 finished CTA #1 (35312,0), 1 CTAs running
GPGPU-Sim uArch: core:  4, cta: 1 initialized @(35313,0)
GPGPU-Sim uArch: Shader 4 finished CTA #0 (35395,0), 1 CTAs running
GPGPU-Sim uArch: core:  4, cta: 0 initialized @(35396,0)
GPGPU-Sim uArch: cycles simulated: 35500  inst.: 6681777 (ipc=188.2) sim_rate=68884 (inst/sec) elapsed = 0:0:01:37 / Tue May 12 17:38:37 2015
GPGPU-Sim PTX: 6900000 instructions simulated : ctaid=(13,2,0) tid=(11,1,0)
GPGPU-Sim uArch: Shader 14 finished CTA #1 (35747,0), 1 CTAs running
GPGPU-Sim uArch: core: 14, cta: 1 initialized @(35748,0)
GPGPU-Sim PTX: 7000000 instructions simulated : ctaid=(14,1,0) tid=(10,3,0)
GPGPU-Sim uArch: cycles simulated: 36000  inst.: 6823889 (ipc=189.6) sim_rate=68928 (inst/sec) elapsed = 0:0:01:39 / Tue May 12 17:38:39 2015
GPGPU-Sim PTX: 7100000 instructions simulated : ctaid=(5,2,0) tid=(5,1,0)
GPGPU-Sim uArch: cycles simulated: 36500  inst.: 6960274 (ipc=190.7) sim_rate=69602 (inst/sec) elapsed = 0:0:01:40 / Tue May 12 17:38:40 2015
GPGPU-Sim PTX: 7200000 instructions simulated : ctaid=(14,2,0) tid=(10,2,0)
GPGPU-Sim uArch: cycles simulated: 37000  inst.: 7027516 (ipc=189.9) sim_rate=68897 (inst/sec) elapsed = 0:0:01:42 / Tue May 12 17:38:42 2015
GPGPU-Sim uArch: Shader 3 finished CTA #1 (37206,0), 1 CTAs running
GPGPU-Sim uArch: core:  3, cta: 1 initialized @(37207,0)
GPGPU-Sim uArch: Shader 3 finished CTA #0 (37262,0), 1 CTAs running
GPGPU-Sim uArch: core:  3, cta: 0 initialized @(37263,0)
GPGPU-Sim uArch: Shader 1 finished CTA #0 (37367,0), 1 CTAs running
GPGPU-Sim uArch: core:  1, cta: 0 initialized @(37368,0)
GPGPU-Sim uArch: Shader 2 finished CTA #0 (37372,0), 1 CTAs running
GPGPU-Sim uArch: core:  2, cta: 0 initialized @(37373,0)
GPGPU-Sim uArch: cycles simulated: 37500  inst.: 7105744 (ipc=189.5) sim_rate=68987 (inst/sec) elapsed = 0:0:01:43 / Tue May 12 17:38:43 2015
GPGPU-Sim PTX: 7300000 instructions simulated : ctaid=(15,2,0) tid=(9,3,0)
GPGPU-Sim uArch: Shader 1 finished CTA #1 (37653,0), 1 CTAs running
GPGPU-Sim uArch: core:  1, cta: 1 initialized @(37654,0)
GPGPU-Sim PTX: 7400000 instructions simulated : ctaid=(15,2,0) tid=(6,4,0)
GPGPU-Sim uArch: cycles simulated: 38000  inst.: 7203360 (ipc=189.6) sim_rate=69263 (inst/sec) elapsed = 0:0:01:44 / Tue May 12 17:38:44 2015
GPGPU-Sim PTX: 7500000 instructions simulated : ctaid=(14,2,0) tid=(5,4,0)
GPGPU-Sim uArch: cycles simulated: 38500  inst.: 7301791 (ipc=189.7) sim_rate=68884 (inst/sec) elapsed = 0:0:01:46 / Tue May 12 17:38:46 2015
GPGPU-Sim uArch: cycles simulated: 39000  inst.: 7388138 (ipc=189.4) sim_rate=69048 (inst/sec) elapsed = 0:0:01:47 / Tue May 12 17:38:47 2015
GPGPU-Sim PTX: 7600000 instructions simulated : ctaid=(1,3,0) tid=(13,6,0)
GPGPU-Sim PTX: 7700000 instructions simulated : ctaid=(0,3,0) tid=(0,2,0)
GPGPU-Sim uArch: cycles simulated: 39500  inst.: 7495115 (ipc=189.7) sim_rate=68762 (inst/sec) elapsed = 0:0:01:49 / Tue May 12 17:38:49 2015
GPGPU-Sim PTX: 7800000 instructions simulated : ctaid=(1,3,0) tid=(14,4,0)
GPGPU-Sim uArch: cycles simulated: 40000  inst.: 7596628 (ipc=189.9) sim_rate=69060 (inst/sec) elapsed = 0:0:01:50 / Tue May 12 17:38:50 2015
GPGPU-Sim uArch: Shader 0 finished CTA #0 (40064,0), 1 CTAs running
GPGPU-Sim uArch: core:  0, cta: 0 initialized @(40065,0)
GPGPU-Sim PTX: 7900000 instructions simulated : ctaid=(11,2,0) tid=(14,6,0)
GPGPU-Sim uArch: cycles simulated: 40500  inst.: 7713868 (ipc=190.5) sim_rate=68873 (inst/sec) elapsed = 0:0:01:52 / Tue May 12 17:38:52 2015
GPGPU-Sim PTX: 8000000 instructions simulated : ctaid=(11,2,0) tid=(12,1,0)
GPGPU-Sim uArch: cycles simulated: 41000  inst.: 7844059 (ipc=191.3) sim_rate=69416 (inst/sec) elapsed = 0:0:01:53 / Tue May 12 17:38:53 2015
GPGPU-Sim PTX: 8100000 instructions simulated : ctaid=(3,3,0) tid=(3,3,0)
GPGPU-Sim uArch: cycles simulated: 41500  inst.: 7948198 (ipc=191.5) sim_rate=69114 (inst/sec) elapsed = 0:0:01:55 / Tue May 12 17:38:55 2015
GPGPU-Sim uArch: Shader 9 finished CTA #0 (41561,0), 1 CTAs running
GPGPU-Sim uArch: core:  9, cta: 0 initialized @(41562,0)
GPGPU-Sim PTX: 8200000 instructions simulated : ctaid=(13,2,0) tid=(15,0,0)
GPGPU-Sim uArch: Shader 7 finished CTA #1 (41992,0), 1 CTAs running
GPGPU-Sim uArch: core:  7, cta: 1 initialized @(41993,0)
GPGPU-Sim uArch: cycles simulated: 42000  inst.: 8038006 (ipc=191.4) sim_rate=69293 (inst/sec) elapsed = 0:0:01:56 / Tue May 12 17:38:56 2015
GPGPU-Sim PTX: 8300000 instructions simulated : ctaid=(0,3,0) tid=(8,6,0)
GPGPU-Sim uArch: cycles simulated: 42500  inst.: 8101695 (ipc=190.6) sim_rate=69245 (inst/sec) elapsed = 0:0:01:57 / Tue May 12 17:38:57 2015
GPGPU-Sim PTX: 8400000 instructions simulated : ctaid=(4,3,0) tid=(3,3,0)
GPGPU-Sim uArch: cycles simulated: 43000  inst.: 8175049 (ipc=190.1) sim_rate=69280 (inst/sec) elapsed = 0:0:01:58 / Tue May 12 17:38:58 2015
GPGPU-Sim PTX: 8500000 instructions simulated : ctaid=(0,3,0) tid=(3,4,0)
GPGPU-Sim uArch: cycles simulated: 43500  inst.: 8289388 (ipc=190.6) sim_rate=69078 (inst/sec) elapsed = 0:0:02:00 / Tue May 12 17:39:00 2015
GPGPU-Sim uArch: Shader 12 finished CTA #1 (43518,0), 1 CTAs running
GPGPU-Sim uArch: core: 12, cta: 1 initialized @(43519,0)
GPGPU-Sim PTX: 8600000 instructions simulated : ctaid=(9,2,0) tid=(12,5,0)
GPGPU-Sim uArch: cycles simulated: 44000  inst.: 8408413 (ipc=191.1) sim_rate=68921 (inst/sec) elapsed = 0:0:02:02 / Tue May 12 17:39:02 2015
GPGPU-Sim PTX: 8700000 instructions simulated : ctaid=(13,2,0) tid=(1,1,0)
GPGPU-Sim uArch: cycles simulated: 44500  inst.: 8504179 (ipc=191.1) sim_rate=69139 (inst/sec) elapsed = 0:0:02:03 / Tue May 12 17:39:03 2015
GPGPU-Sim PTX: 8800000 instructions simulated : ctaid=(2,3,0) tid=(3,4,0)
GPGPU-Sim uArch: cycles simulated: 45000  inst.: 8623876 (ipc=191.6) sim_rate=68991 (inst/sec) elapsed = 0:0:02:05 / Tue May 12 17:39:05 2015
GPGPU-Sim PTX: 8900000 instructions simulated : ctaid=(15,2,0) tid=(9,1,0)
GPGPU-Sim uArch: cycles simulated: 45500  inst.: 8708299 (ipc=191.4) sim_rate=69113 (inst/sec) elapsed = 0:0:02:06 / Tue May 12 17:39:06 2015
GPGPU-Sim PTX: 9000000 instructions simulated : ctaid=(5,3,0) tid=(1,0,0)
GPGPU-Sim uArch: cycles simulated: 46000  inst.: 8786756 (ipc=191.0) sim_rate=69187 (inst/sec) elapsed = 0:0:02:07 / Tue May 12 17:39:07 2015
GPGPU-Sim PTX: 9100000 instructions simulated : ctaid=(7,2,0) tid=(4,4,0)
GPGPU-Sim uArch: cycles simulated: 46500  inst.: 8910458 (ipc=191.6) sim_rate=69073 (inst/sec) elapsed = 0:0:02:09 / Tue May 12 17:39:09 2015
GPGPU-Sim PTX: 9200000 instructions simulated : ctaid=(0,3,0) tid=(6,2,0)
GPGPU-Sim uArch: cycles simulated: 47000  inst.: 9029487 (ipc=192.1) sim_rate=69457 (inst/sec) elapsed = 0:0:02:10 / Tue May 12 17:39:10 2015
GPGPU-Sim PTX: 9300000 instructions simulated : ctaid=(8,3,0) tid=(10,0,0)
GPGPU-Sim uArch: cycles simulated: 47500  inst.: 9122441 (ipc=192.1) sim_rate=69109 (inst/sec) elapsed = 0:0:02:12 / Tue May 12 17:39:12 2015
GPGPU-Sim PTX: 9400000 instructions simulated : ctaid=(6,3,0) tid=(7,6,0)
GPGPU-Sim uArch: cycles simulated: 48000  inst.: 9208586 (ipc=191.8) sim_rate=69237 (inst/sec) elapsed = 0:0:02:13 / Tue May 12 17:39:13 2015
GPGPU-Sim uArch: Shader 14 finished CTA #0 (48179,0), 1 CTAs running
GPGPU-Sim uArch: core: 14, cta: 0 initialized @(48180,0)
GPGPU-Sim uArch: Shader 14 finished CTA #1 (48211,0), 1 CTAs running
GPGPU-Sim uArch: core: 14, cta: 1 initialized @(48212,0)
GPGPU-Sim PTX: 9500000 instructions simulated : ctaid=(7,2,0) tid=(10,0,0)
GPGPU-Sim uArch: cycles simulated: 48500  inst.: 9275544 (ipc=191.2) sim_rate=69220 (inst/sec) elapsed = 0:0:02:14 / Tue May 12 17:39:14 2015
GPGPU-Sim uArch: Shader 4 finished CTA #0 (48780,0), 1 CTAs running
GPGPU-Sim uArch: core:  4, cta: 0 initialized @(48781,0)
GPGPU-Sim PTX: 9600000 instructions simulated : ctaid=(9,1,0) tid=(1,7,0)
GPGPU-Sim uArch: Shader 4 finished CTA #1 (48973,0), 1 CTAs running
GPGPU-Sim uArch: core:  4, cta: 1 initialized @(48974,0)
GPGPU-Sim uArch: cycles simulated: 49000  inst.: 9366579 (ipc=191.2) sim_rate=68871 (inst/sec) elapsed = 0:0:02:16 / Tue May 12 17:39:16 2015
GPGPU-Sim PTX: 9700000 instructions simulated : ctaid=(2,3,0) tid=(0,1,0)
GPGPU-Sim uArch: cycles simulated: 49500  inst.: 9472254 (ipc=191.4) sim_rate=69140 (inst/sec) elapsed = 0:0:02:17 / Tue May 12 17:39:17 2015
GPGPU-Sim PTX: 9800000 instructions simulated : ctaid=(10,0,0) tid=(13,2,0)
GPGPU-Sim uArch: cycles simulated: 50000  inst.: 9570335 (ipc=191.4) sim_rate=68851 (inst/sec) elapsed = 0:0:02:19 / Tue May 12 17:39:19 2015
GPGPU-Sim PTX: 9900000 instructions simulated : ctaid=(10,0,0) tid=(0,0,0)
GPGPU-Sim uArch: Shader 3 finished CTA #0 (50421,0), 1 CTAs running
GPGPU-Sim uArch: core:  3, cta: 0 initialized @(50422,0)
GPGPU-Sim uArch: Shader 3 finished CTA #1 (50487,0), 1 CTAs running
GPGPU-Sim uArch: core:  3, cta: 1 initialized @(50488,0)
GPGPU-Sim uArch: cycles simulated: 50500  inst.: 9649009 (ipc=191.1) sim_rate=68921 (inst/sec) elapsed = 0:0:02:20 / Tue May 12 17:39:20 2015
GPGPU-Sim uArch: Shader 8 finished CTA #0 (50523,0), 1 CTAs running
GPGPU-Sim uArch: core:  8, cta: 0 initialized @(50524,0)
GPGPU-Sim uArch: Shader 2 finished CTA #0 (50739,0), 1 CTAs running
GPGPU-Sim uArch: core:  2, cta: 0 initialized @(50740,0)
GPGPU-Sim uArch: Shader 11 finished CTA #0 (50783,0), 1 CTAs running
GPGPU-Sim uArch: core: 11, cta: 0 initialized @(50784,0)
GPGPU-Sim uArch: Shader 1 finished CTA #0 (50788,0), 1 CTAs running
GPGPU-Sim uArch: core:  1, cta: 0 initialized @(50789,0)
GPGPU-Sim uArch: Shader 11 finished CTA #1 (50815,0), 1 CTAs running
GPGPU-Sim uArch: core: 11, cta: 1 initialized @(50816,0)
GPGPU-Sim uArch: Shader 1 finished CTA #1 (50820,0), 1 CTAs running
GPGPU-Sim uArch: core:  1, cta: 1 initialized @(50821,0)
GPGPU-Sim uArch: Shader 12 finished CTA #0 (50978,0), 1 CTAs running
GPGPU-Sim uArch: core: 12, cta: 0 initialized @(50979,0)
GPGPU-Sim uArch: Shader 5 finished CTA #0 (50989,0), 1 CTAs running
GPGPU-Sim uArch: core:  5, cta: 0 initialized @(50990,0)
GPGPU-Sim uArch: cycles simulated: 51000  inst.: 9726644 (ipc=190.7) sim_rate=68983 (inst/sec) elapsed = 0:0:02:21 / Tue May 12 17:39:21 2015
GPGPU-Sim PTX: 10000000 instructions simulated : ctaid=(13,3,0) tid=(1,1,0)
GPGPU-Sim PTX: 10100000 instructions simulated : ctaid=(15,3,0) tid=(1,3,0)
GPGPU-Sim uArch: cycles simulated: 51500  inst.: 9829522 (ipc=190.9) sim_rate=68737 (inst/sec) elapsed = 0:0:02:23 / Tue May 12 17:39:23 2015
GPGPU-Sim uArch: Shader 5 finished CTA #1 (51697,0), 1 CTAs running
GPGPU-Sim uArch: core:  5, cta: 1 initialized @(51698,0)
GPGPU-Sim PTX: 10200000 instructions simulated : ctaid=(8,3,0) tid=(0,3,0)
GPGPU-Sim uArch: cycles simulated: 52000  inst.: 9963055 (ipc=191.6) sim_rate=68710 (inst/sec) elapsed = 0:0:02:25 / Tue May 12 17:39:25 2015
GPGPU-Sim PTX: 10300000 instructions simulated : ctaid=(10,3,0) tid=(2,1,0)
GPGPU-Sim uArch: cycles simulated: 52500  inst.: 10083068 (ipc=192.1) sim_rate=69062 (inst/sec) elapsed = 0:0:02:26 / Tue May 12 17:39:26 2015
GPGPU-Sim PTX: 10400000 instructions simulated : ctaid=(7,4,0) tid=(11,4,0)
GPGPU-Sim uArch: cycles simulated: 53000  inst.: 10174201 (ipc=192.0) sim_rate=68744 (inst/sec) elapsed = 0:0:02:28 / Tue May 12 17:39:28 2015
GPGPU-Sim PTX: 10500000 instructions simulated : ctaid=(14,3,0) tid=(3,3,0)
GPGPU-Sim uArch: Shader 0 finished CTA #0 (53409,0), 1 CTAs running
GPGPU-Sim uArch: core:  0, cta: 0 initialized @(53410,0)
GPGPU-Sim uArch: cycles simulated: 53500  inst.: 10274252 (ipc=192.0) sim_rate=68954 (inst/sec) elapsed = 0:0:02:29 / Tue May 12 17:39:29 2015
GPGPU-Sim PTX: 10600000 instructions simulated : ctaid=(7,3,0) tid=(2,7,0)
GPGPU-Sim PTX: 10700000 instructions simulated : ctaid=(1,4,0) tid=(6,4,0)
GPGPU-Sim uArch: cycles simulated: 54000  inst.: 10442225 (ipc=193.4) sim_rate=69153 (inst/sec) elapsed = 0:0:02:31 / Tue May 12 17:39:31 2015
GPGPU-Sim PTX: 10800000 instructions simulated : ctaid=(2,4,0) tid=(1,0,0)
GPGPU-Sim PTX: 10900000 instructions simulated : ctaid=(6,4,0) tid=(2,1,0)
GPGPU-Sim uArch: cycles simulated: 54500  inst.: 10610822 (ipc=194.7) sim_rate=68901 (inst/sec) elapsed = 0:0:02:34 / Tue May 12 17:39:34 2015
GPGPU-Sim uArch: Shader 10 finished CTA #0 (54822,0), 1 CTAs running
GPGPU-Sim uArch: core: 10, cta: 0 initialized @(54823,0)
GPGPU-Sim PTX: 11000000 instructions simulated : ctaid=(1,4,0) tid=(8,6,0)
GPGPU-Sim uArch: cycles simulated: 55000  inst.: 10733141 (ipc=195.1) sim_rate=69246 (inst/sec) elapsed = 0:0:02:35 / Tue May 12 17:39:35 2015
GPGPU-Sim PTX: 11100000 instructions simulated : ctaid=(8,3,0) tid=(7,5,0)
GPGPU-Sim uArch: cycles simulated: 55500  inst.: 10832778 (ipc=195.2) sim_rate=68998 (inst/sec) elapsed = 0:0:02:37 / Tue May 12 17:39:37 2015
GPGPU-Sim PTX: 11200000 instructions simulated : ctaid=(14,3,0) tid=(10,3,0)
GPGPU-Sim uArch: cycles simulated: 56000  inst.: 10910953 (ipc=194.8) sim_rate=69056 (inst/sec) elapsed = 0:0:02:38 / Tue May 12 17:39:38 2015
GPGPU-Sim PTX: 11300000 instructions simulated : ctaid=(6,2,0) tid=(14,1,0)
GPGPU-Sim uArch: cycles simulated: 56500  inst.: 10995279 (ipc=194.6) sim_rate=69152 (inst/sec) elapsed = 0:0:02:39 / Tue May 12 17:39:39 2015
GPGPU-Sim PTX: 11400000 instructions simulated : ctaid=(0,4,0) tid=(12,7,0)
[...]
traffic_breakdown_memtocore[INST_ACC_R] = 2954056 {136:21721,}
traffic_breakdown_memtocore[LOCAL_ACC_R] = 517344 {136:3804,}
traffic_breakdown_memtocore[LOCAL_ACC_W] = 235584 {8:29448,}
maxmrqlatency = 318 
maxdqlatency = 0 
maxmflatency = 1784 
averagemflatency = 235 
max_icnt2mem_latency = 963 
max_icnt2sh_latency = 266509 
mrq_lat_table:3050 	117 	477 	1232 	1085 	789 	1165 	2204 	58 	0 	0 	0 	0 	0 	0 	0 	0 	0 	0 	0 	0 	0 	0 	0 	0 	0 	0 	0 	0 	0 	0 	0 	
dq_lat_table:0 	0 	0 	0 	0 	0 	0 	0 	0 	0 	0 	0 	0 	0 	0 	0 	0 	0 	0 	0 	0 	0 	0 	0 	0 	0 	0 	0 	0 	0 	0 	0 	
mf_lat_table:0 	0 	0 	0 	0 	0 	0 	39248 	3696 	1278 	1192 	0 	0 	0 	0 	0 	0 	0 	0 	0 	0 	0 	0 	0 	0 	0 	0 	0 	0 	0 	0 	0 	
icnt2mem_lat_table:0 	0 	0 	27820 	13681 	11258 	13447 	1277 	1735 	346 	0 	0 	0 	0 	0 	0 	0 	0 	0 	0 	0 	0 	0 	0 	
icnt2sh_lat_table:0 	0 	0 	2147 	3379 	2173 	75 	0 	0 	132 	352 	858 	1298 	960 	2247 	4479 	8407 	18369 	538 	0 	0 	0 	0 	0 	
mf_lat_pw_table:0 	0 	0 	0 	0 	0 	0 	487 	9 	7 	5 	0 	0 	0 	0 	0 	0 	0 	0 	0 	0 	0 	0 	0 	0 	0 	0 	0 	0 	0 	0 	0 	
maximum concurrent accesses to same row:
dram[0]:        56         0        64         0        64         0        81         0        64         0        72         0        64         0        64         0 
dram[1]:        64         0        64         0        64         0        89         0        64         0        70         0        64         0        67         0 
dram[2]:         1        64         0        64         0        64         0        77         0        74         0        71         0        64         0        79 
dram[3]:         0        64         0        64         0        64         0        87         0        69         0        70         0        64         0        64 
dram[4]:        64         0        64         0        64         0        82         0        73         0        73         0        64         0        64         0 
dram[5]:        64         0        64         0        64         0        90         0        64         0        68         0        78         0        64         0 
maximum service time to same row:
dram[0]:    140073      8252    245725         0    158479      5842    229134     34279     84781     92979    128480    135351    201846    214254    246129    250569 
dram[1]:     77166     10115    246276         0    152067      5763    229066     36197    108025     96182    130080    136528    205191    217501    246637    251131 
dram[2]:      5777    166616         0    245357      5860    128097     34282    226301     92982    140675    135356    128326    214259    201769    250574    245764 
dram[3]:      6685    145077         0    245759      5800    118614     36200    229064     96185    131024    136532    129801    217504    204968    251135    246170 
dram[4]:    129406     12172    247852         0     83876      5827    229322     34287    129036     92987    128922    135360    202567    214263    246726    250578 
dram[5]:    116275       232    248836         0     85844      5793    229406     36204     86965     96190    130370    136535    205758    217509    247139    251138 
average row accesses per activate:
dram[0]: 11.769231  4.000000 46.666668      -nan 18.100000 20.000000 44.400002 77.000000 12.333333 75.000000 45.666668 82.000000 17.875000 70.000000 24.333334 76.000000 
dram[1]: 19.000000  4.000000 46.666668      -nan 18.333334 22.000000 32.857143 72.000000 13.538462 77.000000 47.000000 74.000000 35.250000 72.000000 28.600000 70.000000 
dram[2]:  1.666667 15.800000      -nan 13.090909 22.000000 12.133333 78.000000 20.000000 75.000000 29.500000 81.000000 45.333332 73.000000 18.625000 76.000000 48.000000 
dram[3]:  4.000000 24.166666      -nan 27.200001 23.000000 13.923077 72.000000 32.285713 79.000000 28.333334 73.000000 45.000000 72.000000 35.750000 68.000000 10.846154 
dram[4]: 15.500000  4.000000 16.333334      -nan 16.090910 24.000000 30.857143 77.000000 34.400002 74.000000 46.333332 85.000000 16.111111 73.000000 14.700000 77.000000 
dram[5]: 15.800000  4.000000 27.200001      -nan 16.600000 27.000000 21.090910 72.000000 56.333332 78.000000 45.333332 74.000000 49.333332 72.000000 10.357142 70.000000 
average row locality = 10177/406 = 25.066502
number of total memory accesses made:
dram[0]:         0         0         0         0         0         0         0         0         0         0         0         0         0         0         0         0 
dram[1]:         0         0         0         0         0         0         0         0         0         0         0         0         0         0         0         0 
dram[2]:         0         0         0         0         0         0         0         0         0         0         0         0         0         0         0         0 
dram[3]:         0         0         0         0         0         0         0         0         0         0         0         0         0         0         0         0 
dram[4]:         0         0         0         0         0         0         0         0         0         0         0         0         0         0         0         0 
dram[5]:         0         0         0         0         0         0         0         0         0         0         0         0         0         0         0         0 
total accesses: 0
min_bank_accesses = 0!
min_chip_accesses = 0!
number of total read accesses:
dram[0]:        73         4        65         0        79        10        96        32        83        32        64        32        65        32        64        32 
dram[1]:        73         4        65         0        75        10        96        32        81        32        65        32        64        32        65        32 
dram[2]:         5        73         0        65        10        80        32        96        32        81        32        64        32        67        32        64 
dram[3]:         4        68         0        64        10        79        32        96        32        80        32        64        32        64        32        64 
dram[4]:        72         4        66         0        78        12        96        32        80        32        64        32        66        32        64        32 
dram[5]:        72         4        64         0        77        12        98        32        80        32        64        32        66        32        65        32 
total reads: 4563
min_bank_accesses = 0!
chip skew: 765/753 = 1.02
number of total write accesses:
dram[0]:        80         0        75         0       102        10       126        45       102        43        73        50        78        38        82        44 
dram[1]:        79         0        75         0        90        12       134        40        95        45        76        42        77        40        78        38 
dram[2]:         0        85         0        79        12       102        46       124        43        96        49        72        41        82        44        80 
dram[3]:         0        77         0        72        13       102        40       130        47        90        41        71        40        79        36        77 
dram[4]:        83         0        81         0        99        12       120        45        92        42        75        53        79        41        83        45 
dram[5]:        86         0        72         0        89        15       134        40        89        46        72        42        82        40        80        38 
total reads: 5614
min_bank_accesses = 0!
chip skew: 955/915 = 1.04
average mf latency per bank:
dram[0]:       1335         0      1536    none        1353       706      1344       444      1127       456      1159       439      1151       502       940       498
dram[1]:       1358         0      1504    none        1480       600      1278       488      1179       459      1032       468      1175       492       946       517
dram[2]:        891      1175    none        1361       735      1327       440      1384       457      1164       441      1140       482      1090       490       881
dram[3]:          0      1305    none        1572       643      1366       489      1337       447      1246       472      1177       491      1171       530       934
dram[4]:       1155         0      1258    none        1341       680      1358       443      1214       461      1141       428      1074       483       920       481
dram[5]:       1108         0      1432    none        1398       617      1224       487      1218       453      1174       468      1023       494       919       516
maximum mf latency per bank:
dram[0]:       1168         0      1366         0      1532       628      1475       302      1171       302      1270       307      1165       312      1215       361
dram[1]:       1088         0      1336         0      1543       528      1346       313      1336       357      1176       311      1096       311      1098       309
dram[2]:        460      1270         0      1261       788      1541       305      1566       302      1458       298      1453       312      1441       365      1311
dram[3]:          0      1292         0      1284       613      1634       312      1640       361      1566       312      1446       312      1493       312      1335
dram[4]:       1184         0      1107         0      1512       660      1636       302      1297       298      1182       304      1254       311      1181       329
dram[5]:       1258         0      1112         0      1630       607      1784       311      1384       323      1242       311      1190       307      1207       304

Number of Memory Banks Accessed per Memory Operation per Warp (from 0):
0	0	0	0	0	0	0	0	0	0	0	0	0	0	0	0	0	0	0	0	0	0	0	0	0	0	0	0	0	0	0	0	0	0	0	0	0	0	0	0	0	0	0	0	0	0	0	0	0	0	0	0	0	0	0	0	0	0	0	0	0	0	0	0	0	0	0	0	0	0	0	0	0	0	0	0	0	0	0	0	0	0	0	0	0	0	0	0	0	0	0	0	0	0	0	0	
Average # of Memory Banks Accessed per Memory Operation per Warp=-nan

position of mrq chosen
0	0	0	0	0	0	0	0	0	0	0	0	0	0	0	0	

average position of mrq chosen = -nan
Memory Partition 0: 
Cache L2_bank_000:
MSHR contents

Cache L2_bank_001:
MSHR contents

In Dram Latency Queue (total = 0): 
DRAM[0]: 16 bks, busW=4 BL=8 CL=12, tRRD=2 tCCD=6, tRCD=12 tRAS=28 tRP=12 tRC=40
n_cmd=351792 n_nop=348703 n_act=70 n_pre=55 n_req=1711 n_rd=1526 n_write=1438 bw_util=0.01685
n_activity=18872 dram_eff=0.3141
bk0: 146a 348884i bk1: 8a 351744i bk2: 130a 348951i bk3: 0a 351786i bk4: 158a 348223i bk5: 20a 351343i bk6: 192a 348138i bk7: 64a 351032i bk8: 166a 348512i bk9: 64a 351037i bk10: 128a 349665i bk11: 64a 351053i bk12: 130a 349303i bk13: 64a 351059i bk14: 128a 349297i bk15: 64a 351021i 
dram_util_bins: 0 0 0 0 0 0 0 0 0 0
dram_eff_bins: 0 0 0 0 0 0 0 0 0 0
mrqq: max=16 avg=0.368095
Memory Partition 1: 
Cache L2_bank_002:
MSHR contents

Cache L2_bank_003:
MSHR contents

In Dram Latency Queue (total = 0): 
DRAM[1]: 16 bks, busW=4 BL=8 CL=12, tRRD=2 tCCD=6, tRCD=12 tRAS=28 tRP=12 tRC=40
n_cmd=351792 n_nop=348772 n_act=59 n_pre=44 n_req=1679 n_rd=1516 n_write=1401 bw_util=0.01658
n_activity=18447 dram_eff=0.3163
bk0: 146a 348955i bk1: 8a 351756i bk2: 130a 348936i bk3: 0a 351799i bk4: 150a 348381i bk5: 20a 351333i bk6: 192a 348035i bk7: 64a 351067i bk8: 162a 348673i bk9: 64a 351006i bk10: 130a 349708i bk11: 64a 351049i bk12: 128a 349386i bk13: 64a 351069i bk14: 130a 349499i bk15: 64a 351069i 
dram_util_bins: 0 0 0 0 0 0 0 0 0 0
dram_eff_bins: 0 0 0 0 0 0 0 0 0 0
mrqq: max=16 avg=0.369895
Memory Partition 2: 
Cache L2_bank_004:
MSHR contents

Cache L2_bank_005:
MSHR contents

In Dram Latency Queue (total = 0): 
DRAM[2]: 16 bks, busW=4 BL=8 CL=12, tRRD=2 tCCD=6, tRCD=12 tRAS=28 tRP=12 tRC=40
n_cmd=351792 n_nop=348678 n_act=76 n_pre=61 n_req=1720 n_rd=1530 n_write=1447 bw_util=0.01692
n_activity=19393 dram_eff=0.307
bk0: 10a 351699i bk1: 146a 348893i bk2: 0a 351793i bk3: 130a 348781i bk4: 20a 351339i bk5: 160a 348373i bk6: 64a 351011i bk7: 192a 348176i bk8: 64a 351012i bk9: 162a 348890i bk10: 64a 351042i bk11: 128a 349552i bk12: 64a 351061i bk13: 134a 349264i bk14: 64a 351028i bk15: 128a 349628i 
dram_util_bins: 0 0 0 0 0 0 0 0 0 0
dram_eff_bins: 0 0 0 0 0 0 0 0 0 0
mrqq: max=16 avg=0.398315
Memory Partition 3: 
Cache L2_bank_006:
MSHR contents

Cache L2_bank_007:
MSHR contents

In Dram Latency Queue (total = 0): 
DRAM[3]: 16 bks, busW=4 BL=8 CL=12, tRRD=2 tCCD=6, tRCD=12 tRAS=28 tRP=12 tRC=40
n_cmd=351792 n_nop=348788 n_act=64 n_pre=49 n_req=1668 n_rd=1506 n_write=1385 bw_util=0.01644
n_activity=18640 dram_eff=0.3102
bk0: 8a 351750i bk1: 136a 349172i bk2: 0a 351790i bk3: 128a 349009i bk4: 20a 351311i bk5: 158a 348291i bk6: 64a 351054i bk7: 192a 348347i bk8: 64a 351010i bk9: 160a 348955i bk10: 64a 351052i bk11: 128a 349568i bk12: 64a 351082i bk13: 128a 349401i bk14: 64a 351088i bk15: 128a 349499i 
dram_util_bins: 0 0 0 0 0 0 0 0 0 0
dram_eff_bins: 0 0 0 0 0 0 0 0 0 0
mrqq: max=16 avg=0.394176
Memory Partition 4: 
Cache L2_bank_008:
MSHR contents

Cache L2_bank_009:
MSHR contents

In Dram Latency Queue (total = 0): 
DRAM[4]: 16 bks, busW=4 BL=8 CL=12, tRRD=2 tCCD=6, tRCD=12 tRAS=28 tRP=12 tRC=40
n_cmd=351792 n_nop=348704 n_act=71 n_pre=56 n_req=1712 n_rd=1524 n_write=1437 bw_util=0.01683
n_activity=18682 dram_eff=0.317
bk0: 144a 348774i bk1: 8a 351758i bk2: 132a 348611i bk3: 0a 351784i bk4: 156a 348322i bk5: 24a 351272i bk6: 192a 348023i bk7: 64a 351027i bk8: 160a 348569i bk9: 64a 351044i bk10: 128a 349380i bk11: 64a 351050i bk12: 132a 349144i bk13: 64a 351073i bk14: 128a 349166i bk15: 64a 351009i 
dram_util_bins: 0 0 0 0 0 0 0 0 0 0
dram_eff_bins: 0 0 0 0 0 0 0 0 0 0
mrqq: max=16 avg=0.356694
Memory Partition 5: 
Cache L2_bank_010:
MSHR contents

Cache L2_bank_011:
MSHR contents

In Dram Latency Queue (total = 0): 
DRAM[5]: 16 bks, busW=4 BL=8 CL=12, tRRD=2 tCCD=6, tRCD=12 tRAS=28 tRP=12 tRC=40
n_cmd=351792 n_nop=348740 n_act=66 n_pre=51 n_req=1687 n_rd=1524 n_write=1411 bw_util=0.01669
n_activity=18398 dram_eff=0.3191
bk0: 144a 348563i bk1: 8a 351756i bk2: 128a 348726i bk3: 0a 351789i bk4: 154a 348406i bk5: 24a 351289i bk6: 196a 347755i bk7: 64a 351059i bk8: 160a 348575i bk9: 64a 351003i bk10: 128a 349437i bk11: 64a 351061i bk12: 132a 349265i bk13: 64a 351079i bk14: 130a 349001i bk15: 64a 351072i 
dram_util_bins: 0 0 0 0 0 0 0 0 0 0
dram_eff_bins: 0 0 0 0 0 0 0 0 0 0
mrqq: max=16 avg=0.353371

========= L2 cache stats =========
L2_cache_bank[0]: Access = 8698, Miss = 589, Miss_rate = 0.068, Pending_hits = 74, Reservation_fails = 806
L2_cache_bank[1]: Access = 3169, Miss = 174, Miss_rate = 0.055, Pending_hits = 72, Reservation_fails = 369
L2_cache_bank[2]: Access = 8873, Miss = 584, Miss_rate = 0.066, Pending_hits = 74, Reservation_fails = 558
L2_cache_bank[3]: Access = 2822, Miss = 174, Miss_rate = 0.062, Pending_hits = 59, Reservation_fails = 371
L2_cache_bank[4]: Access = 2560, Miss = 175, Miss_rate = 0.068, Pending_hits = 80, Reservation_fails = 515
L2_cache_bank[5]: Access = 8550, Miss = 590, Miss_rate = 0.069, Pending_hits = 72, Reservation_fails = 453
L2_cache_bank[6]: Access = 2934, Miss = 174, Miss_rate = 0.059, Pending_hits = 59, Reservation_fails = 469
L2_cache_bank[7]: Access = 8890, Miss = 579, Miss_rate = 0.065, Pending_hits = 68, Reservation_fails = 391
L2_cache_bank[8]: Access = 8971, Miss = 586, Miss_rate = 0.065, Pending_hits = 72, Reservation_fails = 521
L2_cache_bank[9]: Access = 2380, Miss = 176, Miss_rate = 0.074, Pending_hits = 75, Reservation_fails = 281
L2_cache_bank[10]: Access = 9084, Miss = 586, Miss_rate = 0.065, Pending_hits = 64, Reservation_fails = 776
L2_cache_bank[11]: Access = 2633, Miss = 176, Miss_rate = 0.067, Pending_hits = 61, Reservation_fails = 361
L2_total_cache_accesses = 69564
L2_total_cache_misses = 4563
L2_total_cache_miss_rate = 0.0656
L2_total_cache_pending_hits = 830
L2_total_cache_reservation_fails = 5871
L2_total_cache_breakdown:
	L2_cache_stats_breakdown[GLOBAL_ACC_R][HIT] = 3932
	L2_cache_stats_breakdown[GLOBAL_ACC_R][HIT_RESERVED] = 6
	L2_cache_stats_breakdown[GLOBAL_ACC_R][MISS] = 2
	L2_cache_stats_breakdown[GLOBAL_ACC_R][RESERVATION_FAIL] = 200
	L2_cache_stats_breakdown[LOCAL_ACC_R][HIT] = 3789
	L2_cache_stats_breakdown[LOCAL_ACC_R][HIT_RESERVED] = 15
	L2_cache_stats_breakdown[CONST_ACC_R][HIT] = 22
	L2_cache_stats_breakdown[CONST_ACC_R][HIT_RESERVED] = 6
	L2_cache_stats_breakdown[CONST_ACC_R][MISS] = 2
	L2_cache_stats_breakdown[CONST_ACC_R][RESERVATION_FAIL] = 133
	L2_cache_stats_breakdown[GLOBAL_ACC_W][HIT] = 5483
	L2_cache_stats_breakdown[GLOBAL_ACC_W][HIT_RESERVED] = 661
	L2_cache_stats_breakdown[GLOBAL_ACC_W][MISS] = 2048
	L2_cache_stats_breakdown[GLOBAL_ACC_W][RESERVATION_FAIL] = 5
	L2_cache_stats_breakdown[LOCAL_ACC_W][HIT] = 27047
	L2_cache_stats_breakdown[LOCAL_ACC_W][HIT_RESERVED] = 1
	L2_cache_stats_breakdown[LOCAL_ACC_W][MISS] = 2400
	L2_cache_stats_breakdown[LOCAL_ACC_W][RESERVATION_FAIL] = 868
	L2_cache_stats_breakdown[L1_WRBK_ACC][HIT] = 2366
	L2_cache_stats_breakdown[L1_WRBK_ACC][MISS] = 63
	L2_cache_stats_breakdown[INST_ACC_R][HIT] = 21532
	L2_cache_stats_breakdown[INST_ACC_R][HIT_RESERVED] = 141
	L2_cache_stats_breakdown[INST_ACC_R][MISS] = 48
	L2_cache_stats_breakdown[INST_ACC_R][RESERVATION_FAIL] = 4665
L2_cache_data_port_util = 0.076
L2_cache_fill_port_util = 0.006

icnt_total_pkts_mem_to_simt=185055
icnt_total_pkts_simt_to_mem=210949
LD_mem_lat_dist  0 0 0 0 0 0 0 0 0 0 0 0 0 0 0 0 0 0 0 0 0 0 0 0 0 0 0
ST_mem_lat_dist  0 0 0 0 0 0 0 0 0 0 0 0 0 0 0 0 0 0 0 0 0 0 0 0 0 0 0
----------------------------Interconnect-DETAILS--------------------------------
Class 0:
Packet latency average = 14.9522
	minimum = 6
	maximum = 737
Network latency average = 12.1617
	minimum = 6
	maximum = 472
Slowest packet = 566
Flit latency average = 11.3027
	minimum = 6
	maximum = 468
Slowest flit = 3574
Fragmentation average = 0.0754724
	minimum = 0
	maximum = 373
Injected packet rate average = 0.0189971
	minimum = 0.00893025 (at node 24)
	maximum = 0.0327718 (at node 25)
Accepted packet rate average = 0.0189971
	minimum = 0.00893025 (at node 24)
	maximum = 0.034085 (at node 25)
Injected flit rate average = 0.0550329
	minimum = 0.0343252 (at node 24)
	maximum = 0.0798844 (at node 25)
Accepted flit rate average= 0.0550329
	minimum = 0.0140933 (at node 24)
	maximum = 0.120705 (at node 17)
Injected packet length average = 2.8969
Accepted packet length average = 2.8969
Total in-flight flits = 0 (0 measured)
====== Overall Traffic Statistics ======
====== Traffic class 0 ======
Packet latency average = 14.9522 (1 samples)
	minimum = 6 (1 samples)
	maximum = 737 (1 samples)
Network latency average = 12.1617 (1 samples)
	minimum = 6 (1 samples)
	maximum = 472 (1 samples)
Flit latency average = 11.3027 (1 samples)
	minimum = 6 (1 samples)
	maximum = 468 (1 samples)
Fragmentation average = 0.0754724 (1 samples)
	minimum = 0 (1 samples)
	maximum = 373 (1 samples)
Injected packet rate average = 0.0189971 (1 samples)
	minimum = 0.00893025 (1 samples)
	maximum = 0.0327718 (1 samples)
Accepted packet rate average = 0.0189971 (1 samples)
	minimum = 0.00893025 (1 samples)
	maximum = 0.034085 (1 samples)
Injected flit rate average = 0.0550329 (1 samples)
	minimum = 0.0343252 (1 samples)
	maximum = 0.0798844 (1 samples)
Accepted flit rate average = 0.0550329 (1 samples)
	minimum = 0.0140933 (1 samples)
	maximum = 0.120705 (1 samples)
Injected packet size average = 2.8969 (1 samples)
Accepted packet size average = 2.8969 (1 samples)
Hops average = 1 (1 samples)
----------------------------END-of-Interconnect-DETAILS-------------------------


gpgpu_simulation_time = 0 days, 0 hrs, 15 min, 58 sec (958 sec)
gpgpu_simulation_rate = 65430 (inst/sec)
gpgpu_simulation_rate = 278 (cycle/sec)
GPGPU-Sim: synchronize waiting for inactive GPU simulation
GPGPU-Sim API: Stream Manager State
GPGPU-Sim: detected inactive GPU simulation thread

checksum=75ef40cb5b8e
Kernel Time: 957900.750000 
