

        *** GPGPU-Sim Simulator Version 3.2.2  [build 0] ***


GPGPU-Sim PTX: simulation mode 0 (can change with PTX_SIM_MODE_FUNC environment variable:
               1=functional simulation only, 0=detailed performance simulator)
GPGPU-Sim: Configuration options:

-network_mode                           1 # Interconnection network mode
-inter_config_file   config_fermi_islip.icnt # Interconnection network config file
-gpgpu_ptx_use_cuobjdump                    1 # Use cuobjdump to extract ptx and sass from binaries
-gpgpu_experimental_lib_support                    0 # Try to extract code from cuda libraries [Broken because of unknown cudaGetExportTable]
-gpgpu_ptx_convert_to_ptxplus                    0 # Convert SASS (native ISA) to ptxplus and run ptxplus
-gpgpu_ptx_force_max_capability                   20 # Force maximum compute capability
-gpgpu_ptx_inst_debug_to_file                    0 # Dump executed instructions' debug information to file
-gpgpu_ptx_inst_debug_file       inst_debug.txt # Executed instructions' debug output file
-gpgpu_ptx_inst_debug_thread_uid                    1 # Thread UID for executed instructions' debug output
-gpgpu_simd_model                       1 # 1 = post-dominator
-gpgpu_shader_core_pipeline              1536:32 # shader core pipeline config, i.e., {<nthread>:<warpsize>}
-gpgpu_tex_cache:l1  4:128:24,L:R:m:N:L,F:128:4,128:2 # per-shader L1 texture cache  (READ-ONLY) config  {<nsets>:<bsize>:<assoc>,<rep>:<wr>:<alloc>:<wr_alloc>,<mshr>:<N>:<merge>,<mq>:<rf>}
-gpgpu_const_cache:l1 64:64:2,L:R:f:N:L,A:2:32,4 # per-shader L1 constant memory cache  (READ-ONLY) config  {<nsets>:<bsize>:<assoc>,<rep>:<wr>:<alloc>:<wr_alloc>,<mshr>:<N>:<merge>,<mq>} 
-gpgpu_cache:il1     4:128:4,L:R:f:N:L,A:2:32,4 # shader L1 instruction cache config  {<nsets>:<bsize>:<assoc>,<rep>:<wr>:<alloc>:<wr_alloc>,<mshr>:<N>:<merge>,<mq>} 
-gpgpu_cache:dl1     32:128:4,L:L:m:N:H,A:32:8,8 # per-shader L1 data cache config  {<nsets>:<bsize>:<assoc>,<rep>:<wr>:<alloc>:<wr_alloc>,<mshr>:<N>:<merge>,<mq> | none}
-gpgpu_cache:dl1PrefL1                 none # per-shader L1 data cache config  {<nsets>:<bsize>:<assoc>,<rep>:<wr>:<alloc>:<wr_alloc>,<mshr>:<N>:<merge>,<mq> | none}
-gpgpu_cache:dl1PreShared                 none # per-shader L1 data cache config  {<nsets>:<bsize>:<assoc>,<rep>:<wr>:<alloc>:<wr_alloc>,<mshr>:<N>:<merge>,<mq> | none}
-gmem_skip_L1D                          0 # global memory access skip L1D cache (implements -Xptxas -dlcm=cg, default=no skip)
-gpgpu_perfect_mem                      0 # enable perfect memory mode (no cache miss)
-n_regfile_gating_group                    4 # group of lanes that should be read/written together)
-gpgpu_clock_gated_reg_file                    0 # enable clock gated reg file for power calculations
-gpgpu_clock_gated_lanes                    0 # enable clock gated lanes for power calculations
-gpgpu_shader_registers                32768 # Number of registers per shader core. Limits number of concurrent CTAs. (default 8192)
-gpgpu_shader_cta                       8 # Maximum number of concurrent CTAs in shader (default 8)
-gpgpu_num_cta_barriers                   16 # Maximum number of named barriers per CTA (default 16)
-gpgpu_n_clusters                      15 # number of processing clusters
-gpgpu_n_cores_per_cluster                    1 # number of simd cores per cluster
-gpgpu_n_cluster_ejection_buffer_size                    8 # number of packets in ejection buffer
-gpgpu_n_ldst_response_buffer_size                    2 # number of response packets in ld/st unit ejection buffer
-gpgpu_shmem_size                   16384 # Size of shared memory per shader core (default 16kB)
-gpgpu_shmem_size                   49152 # Size of shared memory per shader core (default 16kB)
-gpgpu_shmem_size_PrefL1                16384 # Size of shared memory per shader core (default 16kB)
-gpgpu_shmem_size_PrefShared                16384 # Size of shared memory per shader core (default 16kB)
-gpgpu_shmem_num_banks                   32 # Number of banks in the shared memory in each shader core (default 16)
-gpgpu_shmem_limited_broadcast                    0 # Limit shared memory to do one broadcast per cycle (default on)
-gpgpu_shmem_warp_parts                    1 # Number of portions a warp is divided into for shared memory bank conflict check 
-gpgpu_warpdistro_shader                   -1 # Specify which shader core to collect the warp size distribution from
-gpgpu_warp_issue_shader                    0 # Specify which shader core to collect the warp issue distribution from
-gpgpu_local_mem_map                    1 # Mapping from local memory space address to simulated GPU physical address space (default = enabled)
-gpgpu_num_reg_banks                   16 # Number of register banks (default = 8)
-gpgpu_reg_bank_use_warp_id                    0 # Use warp ID in mapping registers to banks (default = off)
-gpgpu_operand_collector_num_units_sp                    6 # number of collector units (default = 4)
-gpgpu_operand_collector_num_units_sfu                    8 # number of collector units (default = 4)
-gpgpu_operand_collector_num_units_mem                    2 # number of collector units (default = 2)
-gpgpu_operand_collector_num_units_gen                    0 # number of collector units (default = 0)
-gpgpu_operand_collector_num_in_ports_sp                    2 # number of collector unit in ports (default = 1)
-gpgpu_operand_collector_num_in_ports_sfu                    1 # number of collector unit in ports (default = 1)
-gpgpu_operand_collector_num_in_ports_mem                    1 # number of collector unit in ports (default = 1)
-gpgpu_operand_collector_num_in_ports_gen                    0 # number of collector unit in ports (default = 0)
-gpgpu_operand_collector_num_out_ports_sp                    2 # number of collector unit in ports (default = 1)
-gpgpu_operand_collector_num_out_ports_sfu                    1 # number of collector unit in ports (default = 1)
-gpgpu_operand_collector_num_out_ports_mem                    1 # number of collector unit in ports (default = 1)
-gpgpu_operand_collector_num_out_ports_gen                    0 # number of collector unit in ports (default = 0)
-gpgpu_coalesce_arch                   13 # Coalescing arch (default = 13, anything else is off for now)
-gpgpu_num_sched_per_core                    1 # Number of warp schedulers per core
-gpgpu_max_insn_issue_per_warp                    1 # Max number of instructions that can be issued per warp in one cycle by scheduler
-gpgpu_simt_core_sim_order                    1 # Select the simulation order of cores in a cluster (0=Fix, 1=Round-Robin)
-gpgpu_pipeline_widths        2,1,1,2,1,1,2 # Pipeline widths ID_OC_SP,ID_OC_SFU,ID_OC_MEM,OC_EX_SP,OC_EX_SFU,OC_EX_MEM,EX_WB
-gpgpu_num_sp_units                     2 # Number of SP units (default=1)
-gpgpu_num_sfu_units                    1 # Number of SF units (default=1)
-gpgpu_num_mem_units                    1 # Number if ldst units (default=1) WARNING: not hooked up to anything
-gpgpu_scheduler                      gto # Scheduler configuration: < lrr | gto | two_level_active > If two_level_active:<num_active_warps>:<inner_prioritization>:<outer_prioritization>For complete list of prioritization values see shader.h enum scheduler_prioritization_typeDefault: gto
-gpgpu_dram_scheduler                    1 # 0 = fifo, 1 = FR-FCFS (defaul)
-gpgpu_dram_partition_queues              8:8:8:8 # i2$:$2d:d2$:$2i
-l2_ideal                               0 # Use a ideal L2 cache that always hit
-gpgpu_cache:dl2     64:128:8,L:B:m:W:L,A:32:4,4:0,32 # unified banked L2 data cache config  {<nsets>:<bsize>:<assoc>,<rep>:<wr>:<alloc>:<wr_alloc>,<mshr>:<N>:<merge>,<mq>}
-gpgpu_cache:dl2_texture_only                    0 # L2 cache used for texture only
-gpgpu_n_mem                            6 # number of memory modules (e.g. memory controllers) in gpu
-gpgpu_n_sub_partition_per_mchannel                    2 # number of memory subpartition in each memory module
-gpgpu_n_mem_per_ctrlr                    2 # number of memory chips per memory controller
-gpgpu_memlatency_stat                   14 # track and display latency statistics 0x2 enables MC, 0x4 enables queue logs
-gpgpu_frfcfs_dram_sched_queue_size                   16 # 0 = unlimited (default); # entries per chip
-gpgpu_dram_return_queue_size                  116 # 0 = unlimited (default); # entries per chip
-gpgpu_dram_buswidth                    4 # default = 4 bytes (8 bytes per cycle at DDR)
-gpgpu_dram_burst_length                    8 # Burst length of each DRAM request (default = 4 data bus cycle)
-dram_data_command_freq_ratio                    4 # Frequency ratio between DRAM data bus and command bus (default = 2 times, i.e. DDR)
-gpgpu_dram_timing_opt nbk=16:CCD=2:RRD=6:RCD=12:RAS=28:RP=12:RC=40: CL=12:WL=4:CDLR=5:WR=12:nbkgrp=4:CCDL=3:RTPL=2 # DRAM timing parameters = {nbk:tCCD:tRRD:tRCD:tRAS:tRP:tRC:CL:WL:tCDLR:tWR:nbkgrp:tCCDL:tRTPL}
-rop_latency                          120 # ROP queue latency (default 85)
-dram_latency                         100 # DRAM latency (default 30)
-gpgpu_mem_addr_mapping dramid@8;00000000.00000000.00000000.00000000.0000RRRR.RRRRRRRR.BBBCCCCB.CCSSSSSS # mapping memory address to dram model {dramid@<start bit>;<memory address map>}
-gpgpu_mem_addr_test                    0 # run sweep test to check address mapping for aliased address
-gpgpu_mem_address_mask                    1 # 0 = old addressing mask, 1 = new addressing mask, 2 = new add. mask + flipped bank sel and chip sel bits
-gpuwattch_xml_file  gpuwattch_gtx480.xml # GPUWattch XML file
-power_simulation_enabled                    1 # Turn on power simulator (1=On, 0=Off)
-power_per_cycle_dump                    0 # Dump detailed power output each cycle
-power_trace_enabled                    0 # produce a file for the power trace (1=On, 0=Off)
-power_trace_zlevel                     6 # Compression level of the power trace output log (0=no comp, 9=highest)
-steady_power_levels_enabled                    0 # produce a file for the steady power levels (1=On, 0=Off)
-steady_state_definition                  8:4 # allowed deviation:number of samples
-gpgpu_max_cycle                        0 # terminates gpu simulation early (0 = no limit)
-gpgpu_max_insn                         0 # terminates gpu simulation early (0 = no limit)
-gpgpu_max_cta                          0 # terminates gpu simulation early (0 = no limit)
-gpgpu_runtime_stat                   500 # display runtime statistics such as dram utilization {<freq>:<flag>}
-liveness_message_freq                    1 # Minimum number of seconds between simulation liveness messages (0 = always print)
-gpgpu_flush_l1_cache                    0 # Flush L1 cache at the end of each kernel call
-gpgpu_flush_l2_cache                    0 # Flush L2 cache at the end of each kernel call
-gpgpu_deadlock_detect                    1 # Stop the simulation at deadlock (1=on (default), 0=off)
-gpgpu_ptx_instruction_classification                    0 # if enabled will classify ptx instruction types per kernel (Max 255 kernels now)
-gpgpu_ptx_sim_mode                     0 # Select between Performance (default) or Functional simulation (1)
-gpgpu_clock_domains 700.0:700.0:700.0:924.0 # Clock Domain Frequencies in MhZ {<Core Clock>:<ICNT Clock>:<L2 Clock>:<DRAM Clock>}
-gpgpu_max_concurrent_kernel                    8 # maximum kernels that can run concurrently on GPU
-gpgpu_cflog_interval                    0 # Interval between each snapshot in control flow logger
-visualizer_enabled                     0 # Turn on visualizer output (1=On, 0=Off)
-visualizer_outputfile                 NULL # Specifies the output log file for visualizer
-visualizer_zlevel                      6 # Compression level of the visualizer output log (0=no comp, 9=highest)
-trace_enabled                          0 # Turn on traces
-trace_components                    none # comma seperated list of traces to enable. Complete list found in trace_streams.tup. Default none
-trace_sampling_core                    0 # The core which is printed using CORE_DPRINTF. Default 0
-trace_sampling_memory_partition                   -1 # The memory partition which is printed using MEMPART_DPRINTF. Default -1 (i.e. all)
-enable_ptx_file_line_stats                    1 # Turn on PTX source line statistic profiling. (1 = On)
-ptx_line_stats_filename gpgpu_inst_stats.txt # Output file for PTX source line statistics.
-save_embedded_ptx                      0 # saves ptx files embedded in binary as <n>.ptx
-keep                                   0 # keep intermediate files created by GPGPU-Sim when interfacing with external programs
-gpgpu_ptx_save_converted_ptxplus                    0 # Saved converted ptxplus to a file
-ptx_opcode_latency_int         4,13,4,5,145 # Opcode latencies for integers <ADD,MAX,MUL,MAD,DIV>Default 1,1,19,25,145
-ptx_opcode_latency_fp          4,13,4,5,39 # Opcode latencies for single precision floating points <ADD,MAX,MUL,MAD,DIV>Default 1,1,1,1,30
-ptx_opcode_latency_dp         8,19,8,8,330 # Opcode latencies for double precision floating points <ADD,MAX,MUL,MAD,DIV>Default 8,8,8,8,335
-ptx_opcode_initiation_int            1,2,2,1,8 # Opcode initiation intervals for integers <ADD,MAX,MUL,MAD,DIV>Default 1,1,4,4,32
-ptx_opcode_initiation_fp            1,2,1,1,4 # Opcode initiation intervals for single precision floating points <ADD,MAX,MUL,MAD,DIV>Default 1,1,1,1,5
-ptx_opcode_initiation_dp         8,16,8,8,130 # Opcode initiation intervals for double precision floating points <ADD,MAX,MUL,MAD,DIV>Default 8,8,8,8,130
DRAM Timing Options:
nbk                                    16 # number of banks
CCD                                     2 # column to column delay
RRD                                     6 # minimal delay between activation of rows in different banks
RCD                                    12 # row to column delay
RAS                                    28 # time needed to activate row
RP                                     12 # time needed to precharge (deactivate) row
RC                                     40 # row cycle time
CDLR                                    5 # switching from write to read (changes tWTR)
WR                                     12 # last data-in to row precharge
CL                                     12 # CAS latency
WL                                      4 # Write latency
nbkgrp                                  4 # number of bank groups
CCDL                                    3 # column to column delay between accesses to different bank groups
RTPL                                    2 # read to precharge delay between accesses to different bank groups
Total number of memory sub partition = 12
addr_dec_mask[CHIP]  = 0000000000000000 	high:64 low:0
addr_dec_mask[BK]    = 000000000000e100 	high:16 low:8
addr_dec_mask[ROW]   = 000000000fff0000 	high:28 low:16
addr_dec_mask[COL]   = 0000000000001eff 	high:13 low:0
addr_dec_mask[BURST] = 000000000000003f 	high:6 low:0
sub_partition_id_mask = 0000000000000100
GPGPU-Sim uArch: clock freqs: 700000000.000000:700000000.000000:700000000.000000:924000000.000000
GPGPU-Sim uArch: clock periods: 0.00000000142857142857:0.00000000142857142857:0.00000000142857142857:0.00000000108225108225
*** Initializing Memory Statistics ***
GPGPU-Sim uArch: interconnect node map (shaderID+MemID to icntID)
GPGPU-Sim uArch: Memory nodes ID start from index: 15
GPGPU-Sim uArch:    0   1   2   3   4
GPGPU-Sim uArch:    5   6   7   8   9
GPGPU-Sim uArch:   10  11  12  13  14
GPGPU-Sim uArch:   15  16  17  18  19
GPGPU-Sim uArch:   20  21  22  23  24
GPGPU-Sim uArch:   25  26
GPGPU-Sim uArch: interconnect node reverse map (icntID to shaderID+MemID)
GPGPU-Sim uArch: Memory nodes start from ID: 15
GPGPU-Sim uArch:    0   1   2   3   4
GPGPU-Sim uArch:    5   6   7   8   9
GPGPU-Sim uArch:   10  11  12  13  14
GPGPU-Sim uArch:   15  16  17  18  19
GPGPU-Sim uArch:   20  21  22  23  24
GPGPU-Sim uArch:   25  26
62f7c84b053e7125f7dedfb6f8cd2ad7  /home/kishore/project_source/gpu_class_proj/gpgpusim-benchmarks-master/bin/release/RAY
GPGPU-Sim uArch: performance model initialization complete.
GPGPU-Sim PTX: __cudaRegisterFatBinary, fat_cubin_handle = 1, filename=rayTracing.cu
self exe links to: /home/kishore/project_source/gpu_class_proj/gpgpusim-benchmarks-master/bin/release/RAY
Running md5sum using "md5sum /home/kishore/project_source/gpu_class_proj/gpgpusim-benchmarks-master/bin/release/RAY "
Running cuobjdump using "$CUDA_INSTALL_PATH/bin/cuobjdump -ptx -elf -sass /home/kishore/project_source/gpu_class_proj/gpgpusim-benchmarks-master/bin/release/RAY > _cuobjdump_complete_output_8xGdOB"
Parsing file _cuobjdump_complete_output_8xGdOB
######### cuobjdump parser ########
## Adding new section PTX
Adding ptx filename: _cuobjdump_1.ptx
Adding arch: sm_10
Adding identifier: rayTracing.cu
## Adding new section ELF
Adding arch: sm_10
Adding identifier: rayTracing.cu
## Adding new section ELF
Adding arch: sm_20
Adding identifier: rayTracing.cu
## Adding new section PTX
Adding ptx filename: _cuobjdump_2.ptx
Adding arch: sm_20
Adding identifier: rayTracing.cu
Done parsing!!!
GPGPU-Sim PTX: __cudaRegisterFunction _Z6renderPjP4Nodejjff : hostFun 0x0x40a280, fat_cubin_handle = 1
GPGPU-Sim PTX: allocating stack frame region for .param "__cudaretf__Zmi6float3S_" from 0x0 to 0xc
GPGPU-Sim PTX: allocating stack frame region for .param "__cudaparmf1__Zmi6float3S_" from 0xc to 0x18
GPGPU-Sim PTX: allocating stack frame region for .param "__cudaparmf2__Zmi6float3S_" from 0x18 to 0x24
GPGPU-Sim PTX: allocating stack frame region for .param "__cudaretf__Z9normalize6float3" from 0x0 to 0xc
GPGPU-Sim PTX: allocating stack frame region for .param "__cudaparmf1__Z9normalize6float3" from 0xc to 0x18
GPGPU-Sim PTX: allocating stack frame region for .param "__cudaretf__Z18intersectionSphere5Rayon6float3f" from 0x0 to 0x4
GPGPU-Sim PTX: allocating stack frame region for .param "__cudaparmf1__Z18intersectionSphere5Rayon6float3f" from 0x4 to 0x1c
GPGPU-Sim PTX: allocating stack frame region for .param "__cudaparmf2__Z18intersectionSphere5Rayon6float3f" from 0x1c to 0x28
GPGPU-Sim PTX: allocating stack frame region for .param "__cudaparmf3__Z18intersectionSphere5Rayon6float3f" from 0x28 to 0x2c
GPGPU-Sim PTX: allocating stack frame region for .param "__cudaretf__Z16intersectionPlan5Rayon6float3S0_" from 0x0 to 0x4
GPGPU-Sim PTX: allocating stack frame region for .param "__cudaparmf1__Z16intersectionPlan5Rayon6float3S0_" from 0x4 to 0x1c
GPGPU-Sim PTX: allocating stack frame region for .param "__cudaparmf2__Z16intersectionPlan5Rayon6float3S0_" from 0x1c to 0x28
GPGPU-Sim PTX: allocating stack frame region for .param "__cudaparmf3__Z16intersectionPlan5Rayon6float3S0_" from 0x28 to 0x34
GPGPU-Sim PTX: allocating stack frame region for .param "__cudaretf__Z10getNormale6float3S_" from 0x0 to 0xc
GPGPU-Sim PTX: allocating stack frame region for .param "__cudaparmf1__Z10getNormale6float3S_" from 0xc to 0x18
GPGPU-Sim PTX: allocating stack frame region for .param "__cudaparmf2__Z10getNormale6float3S_" from 0x18 to 0x24
GPGPU-Sim PTX: allocating stack frame region for .param "__cudaretf__Z11getNormaleP6float3" from 0x0 to 0xc
GPGPU-Sim PTX: allocating stack frame region for .param "__cudaparmf1__Z11getNormaleP6float3" from 0xc to 0x18
GPGPU-Sim PTX: allocating stack frame region for .param "__cudaretf__Z14rgbaFloatToInt6float4" from 0x0 to 0x4
GPGPU-Sim PTX: allocating stack frame region for .param "__cudaparmf1__Z14rgbaFloatToInt6float4" from 0x4 to 0x14
GPGPU-Sim PTX: allocating stack frame region for .param "__cudaretf__Z12notShadowRayP4Node6float3S1_f" from 0x0 to 0x4
GPGPU-Sim PTX: allocating stack frame region for .param "__cudaparmf1__Z12notShadowRayP4Node6float3S1_f" from 0x4 to 0xc
GPGPU-Sim PTX: allocating stack frame region for .param "__cudaparmf2__Z12notShadowRayP4Node6float3S1_f" from 0xc to 0x18
GPGPU-Sim PTX: allocating stack frame region for .param "__cudaparmf3__Z12notShadowRayP4Node6float3S1_f" from 0x18 to 0x24
GPGPU-Sim PTX: allocating stack frame region for .param "__cudaparmf4__Z12notShadowRayP4Node6float3S1_f" from 0x24 to 0x28
GPGPU-Sim PTX: allocating stack frame region for .param "__cudaretf__Z15float2int_pow20f" from 0x0 to 0x4
GPGPU-Sim PTX: allocating stack frame region for .param "__cudaparmf1__Z15float2int_pow20f" from 0x4 to 0x8
GPGPU-Sim PTX: allocating stack frame region for .param "__cudaretf__Z15float2int_pow50f" from 0x0 to 0x4
GPGPU-Sim PTX: allocating stack frame region for .param "__cudaparmf1__Z15float2int_pow50f" from 0x4 to 0x8
GPGPU-Sim PTX: allocating stack frame region for .param "__cudaparmf1__ZN4dim3C1Ejjj" from 0x0 to 0x8
GPGPU-Sim PTX: allocating stack frame region for .param "__cudaparmf2__ZN4dim3C1Ejjj" from 0x8 to 0xc
GPGPU-Sim PTX: allocating stack frame region for .param "__cudaparmf3__ZN4dim3C1Ejjj" from 0xc to 0x10
GPGPU-Sim PTX: allocating stack frame region for .param "__cudaparmf4__ZN4dim3C1Ejjj" from 0x10 to 0x14
GPGPU-Sim PTX: instruction assembly for function '_Zmi6float3S_'...   done.
GPGPU-Sim PTX: finding reconvergence points for '_Zmi6float3S_'...
GPGPU-Sim PTX: Finding dominators for '_Zmi6float3S_'...
GPGPU-Sim PTX: Finding immediate dominators for '_Zmi6float3S_'...
GPGPU-Sim PTX: Finding postdominators for '_Zmi6float3S_'...
GPGPU-Sim PTX: Finding immediate postdominators for '_Zmi6float3S_'...
GPGPU-Sim PTX: pre-decoding instructions for '_Zmi6float3S_'...
GPGPU-Sim PTX: reconvergence points for _Zmi6float3S_...
GPGPU-Sim PTX: ... end of reconvergence points for _Zmi6float3S_
GPGPU-Sim PTX: ... done pre-decoding instructions for '_Zmi6float3S_'.
GPGPU-Sim PTX: instruction assembly for function '_Z9normalize6float3'...   done.
GPGPU-Sim PTX: finding reconvergence points for '_Z9normalize6float3'...
GPGPU-Sim PTX: Finding dominators for '_Z9normalize6float3'...
GPGPU-Sim PTX: Finding immediate dominators for '_Z9normalize6float3'...
GPGPU-Sim PTX: Finding postdominators for '_Z9normalize6float3'...
GPGPU-Sim PTX: Finding immediate postdominators for '_Z9normalize6float3'...
GPGPU-Sim PTX: pre-decoding instructions for '_Z9normalize6float3'...
GPGPU-Sim PTX: reconvergence points for _Z9normalize6float3...
GPGPU-Sim PTX: ... end of reconvergence points for _Z9normalize6float3
GPGPU-Sim PTX: ... done pre-decoding instructions for '_Z9normalize6float3'.
GPGPU-Sim PTX: instruction assembly for function '_Z18intersectionSphere5Rayon6float3f'...   done.
GPGPU-Sim PTX: finding reconvergence points for '_Z18intersectionSphere5Rayon6float3f'...
GPGPU-Sim PTX: Finding dominators for '_Z18intersectionSphere5Rayon6float3f'...
GPGPU-Sim PTX: Finding immediate dominators for '_Z18intersectionSphere5Rayon6float3f'...
GPGPU-Sim PTX: Finding postdominators for '_Z18intersectionSphere5Rayon6float3f'...
GPGPU-Sim PTX: Finding immediate postdominators for '_Z18intersectionSphere5Rayon6float3f'...
GPGPU-Sim PTX: pre-decoding instructions for '_Z18intersectionSphere5Rayon6float3f'...
GPGPU-Sim PTX: reconvergence points for _Z18intersectionSphere5Rayon6float3f...
GPGPU-Sim PTX:  1 (potential) branch divergence @  PC=0x250 (_1.ptx:173) @%p2 bra $Lt_2_3074;
GPGPU-Sim PTX:    immediate post dominator      @  PC=0x2c0 (_1.ptx:193) mov.f32 %f39, %f32;
GPGPU-Sim PTX:  2 (potential) branch divergence @  PC=0x260 (_1.ptx:175) bra.uni $Lt_2_2818;
GPGPU-Sim PTX:    immediate post dominator      @  PC=0x2c0 (_1.ptx:193) mov.f32 %f39, %f32;
GPGPU-Sim PTX:  3 (potential) branch divergence @  PC=0x280 (_1.ptx:180) @!%p3 bra $Lt_2_3586;
GPGPU-Sim PTX:    immediate post dominator      @  PC=0x2c0 (_1.ptx:193) mov.f32 %f39, %f32;
GPGPU-Sim PTX:  4 (potential) branch divergence @  PC=0x290 (_1.ptx:182) bra.uni $Lt_2_3330;
GPGPU-Sim PTX:    immediate post dominator      @  PC=0x2c0 (_1.ptx:193) mov.f32 %f39, %f32;
GPGPU-Sim PTX: ... end of reconvergence points for _Z18intersectionSphere5Rayon6float3f
GPGPU-Sim PTX: ... done pre-decoding instructions for '_Z18intersectionSphere5Rayon6float3f'.
GPGPU-Sim PTX: instruction assembly for function '_Z16intersectionPlan5Rayon6float3S0_'...   done.
GPGPU-Sim PTX: finding reconvergence points for '_Z16intersectionPlan5Rayon6float3S0_'...
GPGPU-Sim PTX: Finding dominators for '_Z16intersectionPlan5Rayon6float3S0_'...
GPGPU-Sim PTX: Finding immediate dominators for '_Z16intersectionPlan5Rayon6float3S0_'...
GPGPU-Sim PTX: Finding postdominators for '_Z16intersectionPlan5Rayon6float3S0_'...
GPGPU-Sim PTX: Finding immediate postdominators for '_Z16intersectionPlan5Rayon6float3S0_'...
GPGPU-Sim PTX: pre-decoding instructions for '_Z16intersectionPlan5Rayon6float3S0_'...
GPGPU-Sim PTX: reconvergence points for _Z16intersectionPlan5Rayon6float3S0_...
GPGPU-Sim PTX:  1 (potential) branch divergence @  PC=0x320 (_1.ptx:214) @!%p1 bra $Lt_3_2050;
GPGPU-Sim PTX:    immediate post dominator      @  PC=0x368 (_1.ptx:227) mov.f32 %f14, %f9;
GPGPU-Sim PTX:  2 (potential) branch divergence @  PC=0x330 (_1.ptx:216) bra.uni $Lt_3_1794;
GPGPU-Sim PTX:    immediate post dominator      @  PC=0x368 (_1.ptx:227) mov.f32 %f14, %f9;
GPGPU-Sim PTX: ... end of reconvergence points for _Z16intersectionPlan5Rayon6float3S0_
GPGPU-Sim PTX: ... done pre-decoding instructions for '_Z16intersectionPlan5Rayon6float3S0_'.
GPGPU-Sim PTX: instruction assembly for function '_Z10getNormale6float3S_'...   done.
GPGPU-Sim PTX: finding reconvergence points for '_Z10getNormale6float3S_'...
GPGPU-Sim PTX: Finding dominators for '_Z10getNormale6float3S_'...
GPGPU-Sim PTX: Finding immediate dominators for '_Z10getNormale6float3S_'...
GPGPU-Sim PTX: Finding postdominators for '_Z10getNormale6float3S_'...
GPGPU-Sim PTX: Finding immediate postdominators for '_Z10getNormale6float3S_'...
GPGPU-Sim PTX: pre-decoding instructions for '_Z10getNormale6float3S_'...
GPGPU-Sim PTX: reconvergence points for _Z10getNormale6float3S_...
GPGPU-Sim PTX: ... end of reconvergence points for _Z10getNormale6float3S_
GPGPU-Sim PTX: ... done pre-decoding instructions for '_Z10getNormale6float3S_'.
GPGPU-Sim PTX: instruction assembly for function '_Z11getNormaleP6float3'...   done.
GPGPU-Sim PTX: finding reconvergence points for '_Z11getNormaleP6float3'...
GPGPU-Sim PTX: Finding dominators for '_Z11getNormaleP6float3'...
GPGPU-Sim PTX: Finding immediate dominators for '_Z11getNormaleP6float3'...
GPGPU-Sim PTX: Finding postdominators for '_Z11getNormaleP6float3'...
GPGPU-Sim PTX: Finding immediate postdominators for '_Z11getNormaleP6float3'...
GPGPU-Sim PTX: pre-decoding instructions for '_Z11getNormaleP6float3'...
GPGPU-Sim PTX: reconvergence points for _Z11getNormaleP6float3...
GPGPU-Sim PTX: ... end of reconvergence points for _Z11getNormaleP6float3
GPGPU-Sim PTX: ... done pre-decoding instructions for '_Z11getNormaleP6float3'.
GPGPU-Sim PTX: instruction assembly for function '_Z14rgbaFloatToInt6float4'...   done.
GPGPU-Sim PTX: finding reconvergence points for '_Z14rgbaFloatToInt6float4'...
GPGPU-Sim PTX: Finding dominators for '_Z14rgbaFloatToInt6float4'...
GPGPU-Sim PTX: Finding immediate dominators for '_Z14rgbaFloatToInt6float4'...
GPGPU-Sim PTX: Finding postdominators for '_Z14rgbaFloatToInt6float4'...
GPGPU-Sim PTX: Finding immediate postdominators for '_Z14rgbaFloatToInt6float4'...
GPGPU-Sim PTX: pre-decoding instructions for '_Z14rgbaFloatToInt6float4'...
GPGPU-Sim PTX: reconvergence points for _Z14rgbaFloatToInt6float4...
GPGPU-Sim PTX: ... end of reconvergence points for _Z14rgbaFloatToInt6float4
GPGPU-Sim PTX: ... done pre-decoding instructions for '_Z14rgbaFloatToInt6float4'.
GPGPU-Sim PTX: allocating global region for "cnode" from 0x100 to 0x1a0 (global memory space)
GPGPU-Sim PTX: instruction assembly for function '_Z12notShadowRayP4Node6float3S1_f'...   done.
GPGPU-Sim PTX: finding reconvergence points for '_Z12notShadowRayP4Node6float3S1_f'...
GPGPU-Sim PTX: Finding dominators for '_Z12notShadowRayP4Node6float3S1_f'...
GPGPU-Sim PTX: Finding immediate dominators for '_Z12notShadowRayP4Node6float3S1_f'...
GPGPU-Sim PTX: Finding postdominators for '_Z12notShadowRayP4Node6float3S1_f'...
GPGPU-Sim PTX: Finding immediate postdominators for '_Z12notShadowRayP4Node6float3S1_f'...
GPGPU-Sim PTX: pre-decoding instructions for '_Z12notShadowRayP4Node6float3S1_f'...
GPGPU-Sim PTX: reconvergence points for _Z12notShadowRayP4Node6float3S1_f...
GPGPU-Sim PTX:  1 (potential) branch divergence @  PC=0x638 (_1.ptx:364) @%p1 bra $Lt_7_8450;
GPGPU-Sim PTX:    immediate post dominator      @  PC=0x828 (_1.ptx:441) mov.f32 %f58, 0f00000000;    // 0
GPGPU-Sim PTX:  2 (potential) branch divergence @  PC=0x658 (_1.ptx:369) @!%p2 bra $Lt_7_8962;
GPGPU-Sim PTX:    immediate post dominator      @  PC=0x6b8 (_1.ptx:385) mov.f32 %f28, %f20;
GPGPU-Sim PTX:  3 (potential) branch divergence @  PC=0x668 (_1.ptx:371) bra.uni $Lt_7_8706;
GPGPU-Sim PTX:    immediate post dominator      @  PC=0x6b8 (_1.ptx:385) mov.f32 %f28, %f20;
GPGPU-Sim PTX:  4 (potential) branch divergence @  PC=0x6c0 (_1.ptx:386) bra.uni $Lt_7_8194;
GPGPU-Sim PTX:    immediate post dominator      @  PC=0x828 (_1.ptx:441) mov.f32 %f58, 0f00000000;    // 0
GPGPU-Sim PTX:  5 (potential) branch divergence @  PC=0x7b0 (_1.ptx:418) @%p5 bra $Lt_7_9474;
GPGPU-Sim PTX:    immediate post dominator      @  PC=0x820 (_1.ptx:438) mov.f32 %f28, %f51;
GPGPU-Sim PTX:  6 (potential) branch divergence @  PC=0x7c0 (_1.ptx:420) bra.uni $Lt_7_9730;
GPGPU-Sim PTX:    immediate post dominator      @  PC=0x820 (_1.ptx:438) mov.f32 %f28, %f51;
GPGPU-Sim PTX:  7 (potential) branch divergence @  PC=0x7e0 (_1.ptx:425) @!%p6 bra $Lt_7_9986;
GPGPU-Sim PTX:    immediate post dominator      @  PC=0x820 (_1.ptx:438) mov.f32 %f28, %f51;
GPGPU-Sim PTX:  8 (potential) branch divergence @  PC=0x7f0 (_1.ptx:427) bra.uni $Lt_7_9730;
GPGPU-Sim PTX:    immediate post dominator      @  PC=0x820 (_1.ptx:438) mov.f32 %f28, %f51;
GPGPU-Sim PTX:  9 (potential) branch divergence @  PC=0x838 (_1.ptx:443) @!%p7 bra $Lt_7_10242;
GPGPU-Sim PTX:    immediate post dominator      @  PC=0x8e8 (_1.ptx:468) add.s32 %r1, %r1, 1;
GPGPU-Sim PTX: 10 (potential) branch divergence @  PC=0x8d8 (_1.ptx:463) @!%p8 bra $Lt_7_10242;
GPGPU-Sim PTX:    immediate post dominator      @  PC=0x8e8 (_1.ptx:468) add.s32 %r1, %r1, 1;
GPGPU-Sim PTX: 11 (potential) branch divergence @  PC=0x908 (_1.ptx:472) @%p9 bra $Lt_7_10754;
GPGPU-Sim PTX:    immediate post dominator      @  PC=0x960 (_1.ptx:486) selp.s32 %r10, 1, 0, %p11;
GPGPU-Sim PTX: 12 (potential) branch divergence @  PC=0x930 (_1.ptx:477) @%p10 bra $L_7_7170;
GPGPU-Sim PTX:    immediate post dominator      @  PC=0x960 (_1.ptx:486) selp.s32 %r10, 1, 0, %p11;
GPGPU-Sim PTX: 13 (potential) branch divergence @  PC=0x938 (_1.ptx:478) bra.uni $L_7_7938;
GPGPU-Sim PTX:    immediate post dominator      @  PC=0x960 (_1.ptx:486) selp.s32 %r10, 1, 0, %p11;
GPGPU-Sim PTX: ... end of reconvergence points for _Z12notShadowRayP4Node6float3S1_f
GPGPU-Sim PTX: ... done pre-decoding instructions for '_Z12notShadowRayP4Node6float3S1_f'.
GPGPU-Sim PTX: instruction assembly for function '_Z15float2int_pow20f'...   done.
GPGPU-Sim PTX: finding reconvergence points for '_Z15float2int_pow20f'...
GPGPU-Sim PTX: Finding dominators for '_Z15float2int_pow20f'...
GPGPU-Sim PTX: Finding immediate dominators for '_Z15float2int_pow20f'...
GPGPU-Sim PTX: Finding postdominators for '_Z15float2int_pow20f'...
GPGPU-Sim PTX: Finding immediate postdominators for '_Z15float2int_pow20f'...
GPGPU-Sim PTX: pre-decoding instructions for '_Z15float2int_pow20f'...
GPGPU-Sim PTX: reconvergence points for _Z15float2int_pow20f...
GPGPU-Sim PTX: ... end of reconvergence points for _Z15float2int_pow20f
GPGPU-Sim PTX: ... done pre-decoding instructions for '_Z15float2int_pow20f'.
GPGPU-Sim PTX: instruction assembly for function '_Z15float2int_pow50f'...   done.
GPGPU-Sim PTX: finding reconvergence points for '_Z15float2int_pow50f'...
GPGPU-Sim PTX: Finding dominators for '_Z15float2int_pow50f'...
GPGPU-Sim PTX: Finding immediate dominators for '_Z15float2int_pow50f'...
GPGPU-Sim PTX: Finding postdominators for '_Z15float2int_pow50f'...
GPGPU-Sim PTX: Finding immediate postdominators for '_Z15float2int_pow50f'...
GPGPU-Sim PTX: pre-decoding instructions for '_Z15float2int_pow50f'...
GPGPU-Sim PTX: reconvergence points for _Z15float2int_pow50f...
GPGPU-Sim PTX: ... end of reconvergence points for _Z15float2int_pow50f
GPGPU-Sim PTX: ... done pre-decoding instructions for '_Z15float2int_pow50f'.
GPGPU-Sim PTX: allocating constant region for "MView" from 0x200 to 0x230 (global memory space) 1
GPGPU-Sim PTX: allocating stack frame region for .local "__cuda___cuda_local_var_36873_9_non_const_pile_32240" from 0x0 to 0x50
GPGPU-Sim PTX: instruction assembly for function '_Z6renderPjP4Nodejjff'...   done.
GPGPU-Sim PTX: finding reconvergence points for '_Z6renderPjP4Nodejjff'...
GPGPU-Sim PTX: Finding dominators for '_Z6renderPjP4Nodejjff'...
GPGPU-Sim PTX: Finding immediate dominators for '_Z6renderPjP4Nodejjff'...
GPGPU-Sim PTX: Finding postdominators for '_Z6renderPjP4Nodejjff'...
GPGPU-Sim PTX: Finding immediate postdominators for '_Z6renderPjP4Nodejjff'...
GPGPU-Sim PTX: pre-decoding instructions for '_Z6renderPjP4Nodejjff'...
GPGPU-Sim PTX: reconvergence points for _Z6renderPjP4Nodejjff...
GPGPU-Sim PTX:  1 (potential) branch divergence @  PC=0xdb0 (_1.ptx:663) @%p1 bra $Lt_10_44034;
GPGPU-Sim PTX:    immediate post dominator      @  PC=0x2370 (_1.ptx:1495) exit;
GPGPU-Sim PTX:  2 (potential) branch divergence @  PC=0x1028 (_1.ptx:751) @%p2 bra $Lt_10_45570;
GPGPU-Sim PTX:    immediate post dominator      @  PC=0x11b8 (_1.ptx:815) mov.f32 %f108, 0f00000000;   // 0
GPGPU-Sim PTX:  3 (potential) branch divergence @  PC=0x1048 (_1.ptx:756) @!%p3 bra $Lt_10_46082;
GPGPU-Sim PTX:    immediate post dominator      @  PC=0x1090 (_1.ptx:769) mov.f32 %f87, %f82;
GPGPU-Sim PTX:  4 (potential) branch divergence @  PC=0x1058 (_1.ptx:758) bra.uni $Lt_10_45826;
GPGPU-Sim PTX:    immediate post dominator      @  PC=0x1090 (_1.ptx:769) mov.f32 %f87, %f82;
GPGPU-Sim PTX:  5 (potential) branch divergence @  PC=0x1098 (_1.ptx:770) bra.uni $Lt_10_45314;
GPGPU-Sim PTX:    immediate post dominator      @  PC=0x11b8 (_1.ptx:815) mov.f32 %f108, 0f00000000;   // 0
GPGPU-Sim PTX:  6 (potential) branch divergence @  PC=0x1140 (_1.ptx:793) @%p6 bra $Lt_10_46594;
GPGPU-Sim PTX:    immediate post dominator      @  PC=0x11b0 (_1.ptx:813) mov.f32 %f87, %f101;
GPGPU-Sim PTX:  7 (potential) branch divergence @  PC=0x1150 (_1.ptx:795) bra.uni $Lt_10_46850;
GPGPU-Sim PTX:    immediate post dominator      @  PC=0x11b0 (_1.ptx:813) mov.f32 %f87, %f101;
GPGPU-Sim PTX:  8 (potential) branch divergence @  PC=0x1170 (_1.ptx:800) @!%p7 bra $Lt_10_47106;
GPGPU-Sim PTX:    immediate post dominator      @  PC=0x11b0 (_1.ptx:813) mov.f32 %f87, %f101;
GPGPU-Sim PTX:  9 (potential) branch divergence @  PC=0x1180 (_1.ptx:802) bra.uni $Lt_10_46850;
GPGPU-Sim PTX:    immediate post dominator      @  PC=0x11b0 (_1.ptx:813) mov.f32 %f87, %f101;
GPGPU-Sim PTX: 10 (potential) branch divergence @  PC=0x11f8 (_1.ptx:823) @%p8 bra $Lt_10_47362;
GPGPU-Sim PTX:    immediate post dominator      @  PC=0x1210 (_1.ptx:829) add.s32 %r25, %r25, 1;
GPGPU-Sim PTX: 11 (potential) branch divergence @  PC=0x1230 (_1.ptx:833) @%p9 bra $Lt_10_45058;
GPGPU-Sim PTX:    immediate post dominator      @  PC=0x1238 (_1.ptx:834) mov.f32 %f109, 0f00000000;   // 0
GPGPU-Sim PTX: 12 (potential) branch divergence @  PC=0x1280 (_1.ptx:843) @%p10 bra $Lt_10_48130;
GPGPU-Sim PTX:    immediate post dominator      @  PC=0x2140 (_1.ptx:1416) add.s32 %r23, %r23, 1;
GPGPU-Sim PTX: 13 (potential) branch divergence @  PC=0x1330 (_1.ptx:868) @%p11 bra $Lt_10_48898;
GPGPU-Sim PTX:    immediate post dominator      @  PC=0x13b8 (_1.ptx:888) sub.f32 %f136, %f21, %f119;
GPGPU-Sim PTX: 14 (potential) branch divergence @  PC=0x1350 (_1.ptx:873) bra.uni $Lt_10_48642;
GPGPU-Sim PTX:    immediate post dominator      @  PC=0x13b8 (_1.ptx:888) sub.f32 %f136, %f21, %f119;
GPGPU-Sim PTX: 15 (potential) branch divergence @  PC=0x1430 (_1.ptx:903) @!%p12 bra $Lt_10_49410;
GPGPU-Sim PTX:    immediate post dominator      @  PC=0x1470 (_1.ptx:915) mov.f32 %f153, 0f3d4ccccd;   // 0.05
GPGPU-Sim PTX: 16 (potential) branch divergence @  PC=0x1450 (_1.ptx:908) bra.uni $Lt_10_49154;
GPGPU-Sim PTX:    immediate post dominator      @  PC=0x1470 (_1.ptx:915) mov.f32 %f153, 0f3d4ccccd;   // 0.05
GPGPU-Sim PTX: 17 (potential) branch divergence @  PC=0x1578 (_1.ptx:949) @!%p13 bra $Lt_10_58114;
GPGPU-Sim PTX:    immediate post dominator      @  PC=0x2080 (_1.ptx:1388) add.f32 %f399, %f126, %f126;
GPGPU-Sim PTX: 18 (potential) branch divergence @  PC=0x15c0 (_1.ptx:961) @%p14 bra $Lt_10_49922;
GPGPU-Sim PTX:    immediate post dominator      @  PC=0x17b0 (_1.ptx:1039) mov.f32 %f221, 0f00000000;   // 0
GPGPU-Sim PTX: 19 (potential) branch divergence @  PC=0x15e0 (_1.ptx:966) @!%p15 bra $Lt_10_50434;
GPGPU-Sim PTX:    immediate post dominator      @  PC=0x1638 (_1.ptx:982) mov.f32 %f190, %f183;
GPGPU-Sim PTX: 20 (potential) branch divergence @  PC=0x15f0 (_1.ptx:968) bra.uni $Lt_10_50178;
GPGPU-Sim PTX:    immediate post dominator      @  PC=0x1638 (_1.ptx:982) mov.f32 %f190, %f183;
GPGPU-Sim PTX: 21 (potential) branch divergence @  PC=0x1640 (_1.ptx:983) bra.uni $Lt_10_49666;
GPGPU-Sim PTX:    immediate post dominator      @  PC=0x17b0 (_1.ptx:1039) mov.f32 %f221, 0f00000000;   // 0
GPGPU-Sim PTX: 22 (potential) branch divergence @  PC=0x1738 (_1.ptx:1016) @%p18 bra $Lt_10_50946;
GPGPU-Sim PTX:    immediate post dominator      @  PC=0x17a8 (_1.ptx:1036) mov.f32 %f190, %f214;
GPGPU-Sim PTX: 23 (potential) branch divergence @  PC=0x1748 (_1.ptx:1018) bra.uni $Lt_10_51202;
GPGPU-Sim PTX:    immediate post dominator      @  PC=0x17a8 (_1.ptx:1036) mov.f32 %f190, %f214;
GPGPU-Sim PTX: 24 (potential) branch divergence @  PC=0x1768 (_1.ptx:1023) @!%p19 bra $Lt_10_51458;
GPGPU-Sim PTX:    immediate post dominator      @  PC=0x17a8 (_1.ptx:1036) mov.f32 %f190, %f214;
GPGPU-Sim PTX: 25 (potential) branch divergence @  PC=0x1778 (_1.ptx:1025) bra.uni $Lt_10_51202;
GPGPU-Sim PTX:    immediate post dominator      @  PC=0x17a8 (_1.ptx:1036) mov.f32 %f190, %f214;
GPGPU-Sim PTX: 26 (potential) branch divergence @  PC=0x17c0 (_1.ptx:1041) @!%p20 bra $Lt_10_58370;
GPGPU-Sim PTX:    immediate post dominator      @  PC=0x1828 (_1.ptx:1057) add.s32 %r50, %r50, 1;
GPGPU-Sim PTX: 27 (potential) branch divergence @  PC=0x1818 (_1.ptx:1052) @!%p21 bra $Lt_10_58370;
GPGPU-Sim PTX:    immediate post dominator      @  PC=0x1828 (_1.ptx:1057) add.s32 %r50, %r50, 1;
GPGPU-Sim PTX: 28 (potential) branch divergence @  PC=0x1848 (_1.ptx:1061) @%p22 bra $Lt_10_58882;
GPGPU-Sim PTX:    immediate post dominator      @  PC=0x1880 (_1.ptx:1071) @!%p23 bra $Lt_10_58114;
GPGPU-Sim PTX: 29 (potential) branch divergence @  PC=0x1860 (_1.ptx:1064) @%p23 bra $L_10_42498;
GPGPU-Sim PTX:    immediate post dominator      @  PC=0x1880 (_1.ptx:1071) @!%p23 bra $Lt_10_58114;
GPGPU-Sim PTX: 30 (potential) branch divergence @  PC=0x1868 (_1.ptx:1065) bra.uni $L_10_43266;
GPGPU-Sim PTX:    immediate post dominator      @  PC=0x1880 (_1.ptx:1071) @!%p23 bra $Lt_10_58114;
GPGPU-Sim PTX: 31 (potential) branch divergence @  PC=0x1880 (_1.ptx:1071) @!%p23 bra $Lt_10_58114;
GPGPU-Sim PTX:    immediate post dominator      @  PC=0x2080 (_1.ptx:1388) add.f32 %f399, %f126, %f126;
GPGPU-Sim PTX: 32 (potential) branch divergence @  PC=0x19c8 (_1.ptx:1115) @!%p24 bra $Lt_10_51714;
GPGPU-Sim PTX:    immediate post dominator      @  PC=0x2040 (_1.ptx:1375) mov.f32 %f394, 0f3f4ccccd;   // 0.8
GPGPU-Sim PTX: 33 (potential) branch divergence @  PC=0x19d8 (_1.ptx:1118) bra.uni $LDWendi___isnanf_192_1;
GPGPU-Sim PTX:    immediate post dominator      @  PC=0x2040 (_1.ptx:1375) mov.f32 %f394, 0f3f4ccccd;   // 0.8
GPGPU-Sim PTX: 34 (potential) branch divergence @  PC=0x19f8 (_1.ptx:1124) @!%p25 bra $Lt_10_7682;
GPGPU-Sim PTX:    immediate post dominator      @  PC=0x2040 (_1.ptx:1375) mov.f32 %f394, 0f3f4ccccd;   // 0.8
GPGPU-Sim PTX: 35 (potential) branch divergence @  PC=0x1a00 (_1.ptx:1125) bra.uni $Lt_10_7938;
GPGPU-Sim PTX:    immediate post dominator      @  PC=0x1a20 (_1.ptx:1133) mov.f32 %f272, 0f7f800000;   // ((1.0F)/(0.0F))
GPGPU-Sim PTX: 36 (potential) branch divergence @  PC=0x1a18 (_1.ptx:1130) bra.uni $LDWendi___isnanf_192_1;
GPGPU-Sim PTX:    immediate post dominator      @  PC=0x2040 (_1.ptx:1375) mov.f32 %f394, 0f3f4ccccd;   // 0.8
GPGPU-Sim PTX: 37 (potential) branch divergence @  PC=0x1a30 (_1.ptx:1135) @!%p26 bra $Lt_10_52226;
GPGPU-Sim PTX:    immediate post dominator      @  PC=0x2040 (_1.ptx:1375) mov.f32 %f394, 0f3f4ccccd;   // 0.8
GPGPU-Sim PTX: 38 (potential) branch divergence @  PC=0x1a40 (_1.ptx:1138) bra.uni $LDWendi___isnanf_192_1;
GPGPU-Sim PTX:    immediate post dominator      @  PC=0x2040 (_1.ptx:1375) mov.f32 %f394, 0f3f4ccccd;   // 0.8
GPGPU-Sim PTX: 39 (potential) branch divergence @  PC=0x1a58 (_1.ptx:1142) @!%p27 bra $Lt_10_52738;
GPGPU-Sim PTX:    immediate post dominator      @  PC=0x2040 (_1.ptx:1375) mov.f32 %f394, 0f3f4ccccd;   // 0.8
GPGPU-Sim PTX: 40 (potential) branch divergence @  PC=0x1ab8 (_1.ptx:1155) bra.uni $LDWendi___isnanf_192_1;
GPGPU-Sim PTX:    immediate post dominator      @  PC=0x2040 (_1.ptx:1375) mov.f32 %f394, 0f3f4ccccd;   // 0.8
GPGPU-Sim PTX: 41 (potential) branch divergence @  PC=0x1ad0 (_1.ptx:1159) @!%p29 bra $Lt_10_53250;
GPGPU-Sim PTX:    immediate post dominator      @  PC=0x2040 (_1.ptx:1375) mov.f32 %f394, 0f3f4ccccd;   // 0.8
GPGPU-Sim PTX: 42 (potential) branch divergence @  PC=0x1b20 (_1.ptx:1170) @!%p30 bra $Lt_10_53762;
GPGPU-Sim PTX:    immediate post dominator      @  PC=0x1b40 (_1.ptx:1177) mov.f32 %f268, %f284;
GPGPU-Sim PTX: 43 (potential) branch divergence @  PC=0x1b48 (_1.ptx:1178) bra.uni $LDWendi___isnanf_192_1;
GPGPU-Sim PTX:    immediate post dominator      @  PC=0x2040 (_1.ptx:1375) mov.f32 %f394, 0f3f4ccccd;   // 0.8
GPGPU-Sim PTX: 44 (potential) branch divergence @  PC=0x1b60 (_1.ptx:1183) @!%p31 bra $Lt_10_59394;
GPGPU-Sim PTX:    immediate post dominator      @  PC=0x2040 (_1.ptx:1375) mov.f32 %f394, 0f3f4ccccd;   // 0.8
GPGPU-Sim PTX: 45 (potential) branch divergence @  PC=0x1b88 (_1.ptx:1188) @!%p32 bra $Lt_10_59394;
GPGPU-Sim PTX:    immediate post dominator      @  PC=0x2040 (_1.ptx:1375) mov.f32 %f394, 0f3f4ccccd;   // 0.8
GPGPU-Sim PTX: 46 (potential) branch divergence @  PC=0x1ba0 (_1.ptx:1192) bra.uni $LDWendi___isnanf_192_1;
GPGPU-Sim PTX:    immediate post dominator      @  PC=0x2040 (_1.ptx:1375) mov.f32 %f394, 0f3f4ccccd;   // 0.8
GPGPU-Sim PTX: 47 (potential) branch divergence @  PC=0x1bd8 (_1.ptx:1202) @%p33 bra $Lt_10_54530;
GPGPU-Sim PTX:    immediate post dominator      @  PC=0x1c20 (_1.ptx:1216) sub.s32 %r64, %r64, 127;
GPGPU-Sim PTX: 48 (potential) branch divergence @  PC=0x1c10 (_1.ptx:1211) bra.uni $Lt_10_54274;
GPGPU-Sim PTX:    immediate post dominator      @  PC=0x1c20 (_1.ptx:1216) sub.s32 %r64, %r64, 127;
GPGPU-Sim PTX: 49 (potential) branch divergence @  PC=0x1c58 (_1.ptx:1224) @!%p34 bra $Lt_10_54786;
GPGPU-Sim PTX:    immediate post dominator      @  PC=0x1c78 (_1.ptx:1232) mov.f32 %f302, 0fbf800000;   // -1
GPGPU-Sim PTX: 50 (potential) branch divergence @  PC=0x1eb0 (_1.ptx:1312) @%p35 bra $Lt_10_55298;
GPGPU-Sim PTX:    immediate post dominator      @  PC=0x1ed8 (_1.ptx:1321) mov.f32 %f367, %f365;
GPGPU-Sim PTX: 51 (potential) branch divergence @  PC=0x1f98 (_1.ptx:1346) @!%p38 bra $Lt_10_55810;
GPGPU-Sim PTX:    immediate post dominator      @  PC=0x1fa8 (_1.ptx:1351) mov.f32 %f284, %f386;
GPGPU-Sim PTX: 52 (potential) branch divergence @  PC=0x2018 (_1.ptx:1365) @%p39 bra $Lt_10_56322;
GPGPU-Sim PTX:    immediate post dominator      @  PC=0x2038 (_1.ptx:1372) mov.f32 %f268, %f284;
GPGPU-Sim PTX: 53 (potential) branch divergence @  PC=0x2158 (_1.ptx:1419) @%p40 bra $L_10_42242;
GPGPU-Sim PTX:    immediate post dominator      @  PC=0x2170 (_1.ptx:1424) sub.s32 %r86, %r24, 1;
GPGPU-Sim PTX: 54 (potential) branch divergence @  PC=0x2168 (_1.ptx:1421) @%p41 bra $L_10_41474;
GPGPU-Sim PTX:    immediate post dominator      @  PC=0x2170 (_1.ptx:1424) sub.s32 %r86, %r24, 1;
GPGPU-Sim PTX: 55 (potential) branch divergence @  PC=0x2190 (_1.ptx:1428) @%p42 bra $Lt_10_56834;
GPGPU-Sim PTX:    immediate post dominator      @  PC=0x2288 (_1.ptx:1464) ld.global.u32 %r92, [%rd4+0];
GPGPU-Sim PTX: 56 (potential) branch divergence @  PC=0x2280 (_1.ptx:1461) @%p43 bra $Lt_10_57346;
GPGPU-Sim PTX:    immediate post dominator      @  PC=0x2288 (_1.ptx:1464) ld.global.u32 %r92, [%rd4+0];
GPGPU-Sim PTX: ... end of reconvergence points for _Z6renderPjP4Nodejjff
GPGPU-Sim PTX: ... done pre-decoding instructions for '_Z6renderPjP4Nodejjff'.
GPGPU-Sim PTX: instruction assembly for function '_ZN4dim3C1Ejjj'...   done.
GPGPU-Sim PTX: finding reconvergence points for '_ZN4dim3C1Ejjj'...
GPGPU-Sim PTX: Finding dominators for '_ZN4dim3C1Ejjj'...
GPGPU-Sim PTX: Finding immediate dominators for '_ZN4dim3C1Ejjj'...
GPGPU-Sim PTX: Finding postdominators for '_ZN4dim3C1Ejjj'...
GPGPU-Sim PTX: Finding immediate postdominators for '_ZN4dim3C1Ejjj'...
GPGPU-Sim PTX: pre-decoding instructions for '_ZN4dim3C1Ejjj'...
GPGPU-Sim PTX: reconvergence points for _ZN4dim3C1Ejjj...
GPGPU-Sim PTX: ... end of reconvergence points for _ZN4dim3C1Ejjj
GPGPU-Sim PTX: ... done pre-decoding instructions for '_ZN4dim3C1Ejjj'.
GPGPU-Sim PTX: finished parsing EMBEDDED .ptx file _1.ptx
Adding _cuobjdump_2.ptx with cubin handle 1
GPGPU-Sim PTX: extracting embedded .ptx to temporary file "_ptx_8WQxSj"
Running: cat _ptx_8WQxSj | sed 's/.version 1.5/.version 1.4/' | sed 's/, texmode_independent//' | sed 's/\(\.extern \.const\[1\] .b8 \w\+\)\[\]/\1\[1\]/' | sed 's/const\[.\]/const\[0\]/g' > _ptx2_MkFTW1
GPGPU-Sim PTX: generating ptxinfo using "$CUDA_INSTALL_PATH/bin/ptxas --gpu-name=sm_20 -v _ptx2_MkFTW1 --output-file  /dev/null 2> _ptx_8WQxSjinfo"
GPGPU-Sim PTX: Kernel '_Z6renderPjP4Nodejjff' : regs=45, lmem=4, smem=0, cmem=180
GPGPU-Sim PTX: removing ptxinfo using "rm -f _ptx_8WQxSj _ptx2_MkFTW1 _ptx_8WQxSjinfo"
GPGPU-Sim PTX: loading globals with explicit initializers... 
GPGPU-Sim PTX: finished loading globals (0 bytes total).
GPGPU-Sim PTX: loading constants with explicit initializers...  done.
GPGPU-Sim PTX: __cudaRegisterVar: hostVar = 0x636760; deviceAddress = MView; deviceName = MView
GPGPU-Sim PTX: __cudaRegisterVar: Registering const memory space of 48 bytes
GPGPU-Sim PTX registering constant MView (48 bytes) to name mapping
GPGPU-Sim PTX: __cudaRegisterVar: hostVar = 0x6367a0; deviceAddress = cnode; deviceName = cnode
GPGPU-Sim PTX: __cudaRegisterVar: Registering const memory space of 160 bytes
GPGPU-Sim PTX registering constant cnode (160 bytes) to name mapping
GPGPU-Sim PTX: cudaMemcpyToSymbol: symbol = 0x6367a0
GPGPU-Sim PTX: starting gpgpu_ptx_sim_memcpy_symbol with hostVar 0x0x6367a0
GPGPU-Sim PTX: gpgpu_ptx_sim_memcpy_symbol: Found PTX symbol w/ hostVar=0x6367a0
GPGPU-Sim PTX: gpgpu_ptx_sim_memcpy_symbol: copying const memory 160 bytes  to  symbol cnode+0 @0x100 ...
GPGPU-Sim PTX: cudaMemcpyToSymbol: symbol = 0x636760
GPGPU-Sim PTX: starting gpgpu_ptx_sim_memcpy_symbol with hostVar 0x0x636760
GPGPU-Sim PTX: gpgpu_ptx_sim_memcpy_symbol: Found PTX symbol w/ hostVar=0x636760
GPGPU-Sim PTX: gpgpu_ptx_sim_memcpy_symbol: copying const memory 48 bytes  to  symbol MView+0 @0x200 ...

GPGPU-Sim PTX: cudaLaunch for 0x0x40a280 (mode=performance simulation) on stream 0
GPGPU-Sim PTX: pushing kernel '_Z6renderPjP4Nodejjff' to stream 0, gridDim= (16,32,1) blockDim = (16,8,1) 
kernel '_Z6renderPjP4Nodejjff' transfer to GPU hardware scheduler
GPGPU-Sim uArch: Shader 1 bind to kernel 1 '_Z6renderPjP4Nodejjff'
GPGPU-Sim uArch: CTA/core = 5, limited by: regs
GPGPU-Sim uArch: core:  1, cta: 0 initialized @(1,0)
GPGPU-Sim uArch: Shader 2 bind to kernel 1 '_Z6renderPjP4Nodejjff'
GPGPU-Sim uArch: core:  2, cta: 0 initialized @(1,0)
GPGPU-Sim uArch: Shader 3 bind to kernel 1 '_Z6renderPjP4Nodejjff'
GPGPU-Sim uArch: core:  3, cta: 0 initialized @(1,0)
GPGPU-Sim uArch: Shader 4 bind to kernel 1 '_Z6renderPjP4Nodejjff'
GPGPU-Sim uArch: core:  4, cta: 0 initialized @(1,0)
GPGPU-Sim uArch: Shader 5 bind to kernel 1 '_Z6renderPjP4Nodejjff'
GPGPU-Sim uArch: core:  5, cta: 0 initialized @(1,0)
GPGPU-Sim uArch: Shader 6 bind to kernel 1 '_Z6renderPjP4Nodejjff'
GPGPU-Sim uArch: core:  6, cta: 0 initialized @(1,0)
GPGPU-Sim uArch: Shader 7 bind to kernel 1 '_Z6renderPjP4Nodejjff'
GPGPU-Sim uArch: core:  7, cta: 0 initialized @(1,0)
GPGPU-Sim uArch: Shader 8 bind to kernel 1 '_Z6renderPjP4Nodejjff'
GPGPU-Sim uArch: core:  8, cta: 0 initialized @(1,0)
GPGPU-Sim uArch: Shader 9 bind to kernel 1 '_Z6renderPjP4Nodejjff'
GPGPU-Sim uArch: core:  9, cta: 0 initialized @(1,0)
GPGPU-Sim uArch: Shader 10 bind to kernel 1 '_Z6renderPjP4Nodejjff'
GPGPU-Sim uArch: core: 10, cta: 0 initialized @(1,0)
GPGPU-Sim uArch: Shader 11 bind to kernel 1 '_Z6renderPjP4Nodejjff'
GPGPU-Sim uArch: core: 11, cta: 0 initialized @(1,0)
GPGPU-Sim uArch: Shader 12 bind to kernel 1 '_Z6renderPjP4Nodejjff'
GPGPU-Sim uArch: core: 12, cta: 0 initialized @(1,0)
GPGPU-Sim uArch: Shader 13 bind to kernel 1 '_Z6renderPjP4Nodejjff'
GPGPU-Sim uArch: core: 13, cta: 0 initialized @(1,0)
GPGPU-Sim uArch: Shader 14 bind to kernel 1 '_Z6renderPjP4Nodejjff'
GPGPU-Sim uArch: core: 14, cta: 0 initialized @(1,0)
GPGPU-Sim uArch: Shader 0 bind to kernel 1 '_Z6renderPjP4Nodejjff'
GPGPU-Sim uArch: core:  0, cta: 0 initialized @(1,0)
GPGPU-Sim uArch: core:  1, cta: 1 initialized @(2,0)
GPGPU-Sim uArch: core:  2, cta: 1 initialized @(2,0)
GPGPU-Sim uArch: core:  3, cta: 1 initialized @(2,0)
GPGPU-Sim uArch: core:  4, cta: 1 initialized @(2,0)
GPGPU-Sim uArch: core:  5, cta: 1 initialized @(2,0)
GPGPU-Sim uArch: core:  6, cta: 1 initialized @(2,0)
GPGPU-Sim uArch: core:  7, cta: 1 initialized @(2,0)
GPGPU-Sim uArch: core:  8, cta: 1 initialized @(2,0)
GPGPU-Sim uArch: core:  9, cta: 1 initialized @(2,0)
GPGPU-Sim uArch: core: 10, cta: 1 initialized @(2,0)
GPGPU-Sim uArch: core: 11, cta: 1 initialized @(2,0)
GPGPU-Sim uArch: core: 12, cta: 1 initialized @(2,0)
GPGPU-Sim uArch: core: 13, cta: 1 initialized @(2,0)
GPGPU-Sim uArch: core: 14, cta: 1 initialized @(2,0)
GPGPU-Sim uArch: core:  0, cta: 1 initialized @(2,0)
GPGPU-Sim uArch: core:  1, cta: 2 initialized @(3,0)
GPGPU-Sim uArch: core:  2, cta: 2 initialized @(3,0)
GPGPU-Sim uArch: core:  3, cta: 2 initialized @(3,0)
GPGPU-Sim uArch: core:  4, cta: 2 initialized @(3,0)
GPGPU-Sim uArch: core:  5, cta: 2 initialized @(3,0)
GPGPU-Sim uArch: core:  6, cta: 2 initialized @(3,0)
GPGPU-Sim uArch: core:  7, cta: 2 initialized @(3,0)
GPGPU-Sim uArch: core:  8, cta: 2 initialized @(3,0)
GPGPU-Sim uArch: core:  9, cta: 2 initialized @(3,0)
GPGPU-Sim uArch: core: 10, cta: 2 initialized @(3,0)
GPGPU-Sim uArch: core: 11, cta: 2 initialized @(3,0)
GPGPU-Sim uArch: core: 12, cta: 2 initialized @(3,0)
GPGPU-Sim uArch: core: 13, cta: 2 initialized @(3,0)
GPGPU-Sim uArch: core: 14, cta: 2 initialized @(3,0)
GPGPU-Sim uArch: core:  0, cta: 2 initialized @(3,0)
GPGPU-Sim uArch: core:  1, cta: 3 initialized @(4,0)
GPGPU-Sim uArch: core:  2, cta: 3 initialized @(4,0)
GPGPU-Sim uArch: core:  3, cta: 3 initialized @(4,0)
GPGPU-Sim uArch: core:  4, cta: 3 initialized @(4,0)
GPGPU-Sim uArch: core:  5, cta: 3 initialized @(4,0)
GPGPU-Sim uArch: core:  6, cta: 3 initialized @(4,0)
GPGPU-Sim uArch: core:  7, cta: 3 initialized @(4,0)
GPGPU-Sim uArch: core:  8, cta: 3 initialized @(4,0)
GPGPU-Sim uArch: core:  9, cta: 3 initialized @(4,0)
GPGPU-Sim uArch: core: 10, cta: 3 initialized @(4,0)
GPGPU-Sim uArch: core: 11, cta: 3 initialized @(4,0)
GPGPU-Sim uArch: core: 12, cta: 3 initialized @(4,0)
GPGPU-Sim uArch: core: 13, cta: 3 initialized @(4,0)
GPGPU-Sim uArch: core: 14, cta: 3 initialized @(4,0)
GPGPU-Sim uArch: core:  0, cta: 3 initialized @(4,0)
GPGPU-Sim uArch: core:  1, cta: 4 initialized @(5,0)
GPGPU-Sim uArch: core:  2, cta: 4 initialized @(5,0)
GPGPU-Sim uArch: core:  3, cta: 4 initialized @(5,0)
GPGPU-Sim uArch: core:  4, cta: 4 initialized @(5,0)
GPGPU-Sim uArch: core:  5, cta: 4 initialized @(5,0)
GPGPU-Sim uArch: core:  6, cta: 4 initialized @(5,0)
GPGPU-Sim uArch: core:  7, cta: 4 initialized @(5,0)
GPGPU-Sim uArch: core:  8, cta: 4 initialized @(5,0)
GPGPU-Sim uArch: core:  9, cta: 4 initialized @(5,0)
GPGPU-Sim uArch: core: 10, cta: 4 initialized @(5,0)
GPGPU-Sim uArch: core: 11, cta: 4 initialized @(5,0)
GPGPU-Sim uArch: core: 12, cta: 4 initialized @(5,0)
GPGPU-Sim uArch: core: 13, cta: 4 initialized @(5,0)
GPGPU-Sim uArch: core: 14, cta: 4 initialized @(5,0)
GPGPU-Sim uArch: core:  0, cta: 4 initialized @(5,0)
GPGPU-Sim uArch: cycles simulated: 500  inst.: 34240 (ipc=68.5) sim_rate=34240 (inst/sec) elapsed = 0:0:00:01 / Tue May 12 18:45:09 2015
GPGPU-Sim uArch: cycles simulated: 1000  inst.: 62848 (ipc=62.8) sim_rate=31424 (inst/sec) elapsed = 0:0:00:02 / Tue May 12 18:45:10 2015
GPGPU-Sim uArch: cycles simulated: 1500  inst.: 72032 (ipc=48.0) sim_rate=24010 (inst/sec) elapsed = 0:0:00:03 / Tue May 12 18:45:11 2015
GPGPU-Sim uArch: cycles simulated: 2000  inst.: 84160 (ipc=42.1) sim_rate=21040 (inst/sec) elapsed = 0:0:00:04 / Tue May 12 18:45:12 2015
GPGPU-Sim PTX: 100000 instructions simulated : ctaid=(10,0,0) tid=(15,1,0)
GPGPU-Sim uArch: cycles simulated: 2500  inst.: 109792 (ipc=43.9) sim_rate=21958 (inst/sec) elapsed = 0:0:00:05 / Tue May 12 18:45:13 2015
GPGPU-Sim uArch: cycles simulated: 3000  inst.: 127680 (ipc=42.6) sim_rate=21280 (inst/sec) elapsed = 0:0:00:06 / Tue May 12 18:45:14 2015
GPGPU-Sim uArch: cycles simulated: 3500  inst.: 168448 (ipc=48.1) sim_rate=24064 (inst/sec) elapsed = 0:0:00:07 / Tue May 12 18:45:15 2015
GPGPU-Sim PTX: 200000 instructions simulated : ctaid=(1,0,0) tid=(15,1,0)
GPGPU-Sim uArch: cycles simulated: 4000  inst.: 216960 (ipc=54.2) sim_rate=27120 (inst/sec) elapsed = 0:0:00:08 / Tue May 12 18:45:16 2015
GPGPU-Sim uArch: cycles simulated: 4500  inst.: 238720 (ipc=53.0) sim_rate=26524 (inst/sec) elapsed = 0:0:00:09 / Tue May 12 18:45:17 2015
GPGPU-Sim PTX: 300000 instructions simulated : ctaid=(2,2,0) tid=(15,5,0)
GPGPU-Sim uArch: cycles simulated: 5000  inst.: 300480 (ipc=60.1) sim_rate=27316 (inst/sec) elapsed = 0:0:00:11 / Tue May 12 18:45:19 2015
GPGPU-Sim PTX: 400000 instructions simulated : ctaid=(15,1,0) tid=(15,1,0)
GPGPU-Sim uArch: cycles simulated: 5500  inst.: 405120 (ipc=73.7) sim_rate=33760 (inst/sec) elapsed = 0:0:00:12 / Tue May 12 18:45:20 2015
GPGPU-Sim PTX: 500000 instructions simulated : ctaid=(12,1,0) tid=(15,3,0)
GPGPU-Sim uArch: cycles simulated: 6000  inst.: 532640 (ipc=88.8) sim_rate=40972 (inst/sec) elapsed = 0:0:00:13 / Tue May 12 18:45:21 2015
GPGPU-Sim PTX: 600000 instructions simulated : ctaid=(1,3,0) tid=(15,5,0)
GPGPU-Sim uArch: cycles simulated: 6500  inst.: 617568 (ipc=95.0) sim_rate=41171 (inst/sec) elapsed = 0:0:00:15 / Tue May 12 18:45:23 2015
GPGPU-Sim PTX: 700000 instructions simulated : ctaid=(5,1,0) tid=(15,3,0)
GPGPU-Sim uArch: cycles simulated: 7000  inst.: 707264 (ipc=101.0) sim_rate=44204 (inst/sec) elapsed = 0:0:00:16 / Tue May 12 18:45:24 2015
GPGPU-Sim uArch: cycles simulated: 7500  inst.: 774048 (ipc=103.2) sim_rate=45532 (inst/sec) elapsed = 0:0:00:17 / Tue May 12 18:45:25 2015
GPGPU-Sim PTX: 800000 instructions simulated : ctaid=(4,2,0) tid=(15,5,0)
GPGPU-Sim PTX: 900000 instructions simulated : ctaid=(14,3,0) tid=(15,1,0)
GPGPU-Sim uArch: cycles simulated: 8000  inst.: 950112 (ipc=118.8) sim_rate=50005 (inst/sec) elapsed = 0:0:00:19 / Tue May 12 18:45:27 2015
GPGPU-Sim PTX: 1000000 instructions simulated : ctaid=(4,2,0) tid=(15,5,0)
GPGPU-Sim PTX: 1100000 instructions simulated : ctaid=(2,4,0) tid=(15,7,0)
GPGPU-Sim uArch: cycles simulated: 8500  inst.: 1097376 (ipc=129.1) sim_rate=52256 (inst/sec) elapsed = 0:0:00:21 / Tue May 12 18:45:29 2015
GPGPU-Sim PTX: 1200000 instructions simulated : ctaid=(5,3,0) tid=(15,1,0)
GPGPU-Sim uArch: cycles simulated: 9000  inst.: 1222016 (ipc=135.8) sim_rate=55546 (inst/sec) elapsed = 0:0:00:22 / Tue May 12 18:45:30 2015
GPGPU-Sim PTX: 1300000 instructions simulated : ctaid=(5,1,0) tid=(15,7,0)
GPGPU-Sim PTX: 1400000 instructions simulated : ctaid=(5,3,0) tid=(15,3,0)
GPGPU-Sim uArch: cycles simulated: 9500  inst.: 1438080 (ipc=151.4) sim_rate=59920 (inst/sec) elapsed = 0:0:00:24 / Tue May 12 18:45:32 2015
GPGPU-Sim PTX: 1500000 instructions simulated : ctaid=(3,2,0) tid=(15,1,0)
GPGPU-Sim PTX: 1600000 instructions simulated : ctaid=(8,2,0) tid=(15,7,0)
GPGPU-Sim PTX: 1700000 instructions simulated : ctaid=(5,0,0) tid=(15,1,0)
GPGPU-Sim uArch: cycles simulated: 10000  inst.: 1667968 (ipc=166.8) sim_rate=64152 (inst/sec) elapsed = 0:0:00:26 / Tue May 12 18:45:34 2015
GPGPU-Sim PTX: 1800000 instructions simulated : ctaid=(13,2,0) tid=(15,3,0)
GPGPU-Sim PTX: 1900000 instructions simulated : ctaid=(10,2,0) tid=(15,7,0)
GPGPU-Sim uArch: cycles simulated: 10500  inst.: 1891488 (ipc=180.1) sim_rate=70055 (inst/sec) elapsed = 0:0:00:27 / Tue May 12 18:45:35 2015
GPGPU-Sim PTX: 2000000 instructions simulated : ctaid=(15,2,0) tid=(15,1,0)
GPGPU-Sim PTX: 2100000 instructions simulated : ctaid=(7,0,0) tid=(15,7,0)
GPGPU-Sim uArch: cycles simulated: 11000  inst.: 2122432 (ipc=192.9) sim_rate=73187 (inst/sec) elapsed = 0:0:00:29 / Tue May 12 18:45:37 2015
GPGPU-Sim PTX: 2200000 instructions simulated : ctaid=(9,3,0) tid=(15,1,0)
GPGPU-Sim PTX: 2300000 instructions simulated : ctaid=(1,1,0) tid=(15,5,0)
GPGPU-Sim PTX: 2400000 instructions simulated : ctaid=(7,0,0) tid=(15,3,0)
GPGPU-Sim uArch: cycles simulated: 11500  inst.: 2352512 (ipc=204.6) sim_rate=75887 (inst/sec) elapsed = 0:0:00:31 / Tue May 12 18:45:39 2015
GPGPU-Sim PTX: 2500000 instructions simulated : ctaid=(10,3,0) tid=(15,1,0)
GPGPU-Sim PTX: 2600000 instructions simulated : ctaid=(3,1,0) tid=(15,7,0)
GPGPU-Sim uArch: cycles simulated: 12000  inst.: 2586688 (ipc=215.6) sim_rate=78384 (inst/sec) elapsed = 0:0:00:33 / Tue May 12 18:45:41 2015
GPGPU-Sim PTX: 2700000 instructions simulated : ctaid=(12,2,0) tid=(15,5,0)
GPGPU-Sim PTX: 2800000 instructions simulated : ctaid=(1,0,0) tid=(15,3,0)
GPGPU-Sim uArch: cycles simulated: 12500  inst.: 2792416 (ipc=223.4) sim_rate=79783 (inst/sec) elapsed = 0:0:00:35 / Tue May 12 18:45:43 2015
GPGPU-Sim PTX: 2900000 instructions simulated : ctaid=(12,1,0) tid=(15,7,0)
GPGPU-Sim PTX: 3000000 instructions simulated : ctaid=(13,0,0) tid=(15,1,0)
GPGPU-Sim uArch: cycles simulated: 13000  inst.: 3001824 (ipc=230.9) sim_rate=83384 (inst/sec) elapsed = 0:0:00:36 / Tue May 12 18:45:44 2015
GPGPU-Sim PTX: 3100000 instructions simulated : ctaid=(14,1,0) tid=(15,5,0)
GPGPU-Sim PTX: 3200000 instructions simulated : ctaid=(2,1,0) tid=(15,1,0)
GPGPU-Sim PTX: 3300000 instructions simulated : ctaid=(0,0,0) tid=(15,3,0)
GPGPU-Sim uArch: cycles simulated: 13500  inst.: 3217216 (ipc=238.3) sim_rate=84663 (inst/sec) elapsed = 0:0:00:38 / Tue May 12 18:45:46 2015
GPGPU-Sim PTX: 3400000 instructions simulated : ctaid=(3,4,0) tid=(15,3,0)
GPGPU-Sim uArch: cycles simulated: 14000  inst.: 3378176 (ipc=241.3) sim_rate=84454 (inst/sec) elapsed = 0:0:00:40 / Tue May 12 18:45:48 2015
GPGPU-Sim PTX: 3500000 instructions simulated : ctaid=(12,2,0) tid=(15,7,0)
GPGPU-Sim PTX: 3600000 instructions simulated : ctaid=(5,3,0) tid=(15,1,0)
GPGPU-Sim uArch: cycles simulated: 14500  inst.: 3588736 (ipc=247.5) sim_rate=85446 (inst/sec) elapsed = 0:0:00:42 / Tue May 12 18:45:50 2015
GPGPU-Sim PTX: 3700000 instructions simulated : ctaid=(1,3,0) tid=(15,1,0)
GPGPU-Sim PTX: 3800000 instructions simulated : ctaid=(5,2,0) tid=(15,7,0)
GPGPU-Sim PTX: 3900000 instructions simulated : ctaid=(8,3,0) tid=(15,1,0)
GPGPU-Sim uArch: cycles simulated: 15000  inst.: 3813664 (ipc=254.2) sim_rate=86674 (inst/sec) elapsed = 0:0:00:44 / Tue May 12 18:45:52 2015
GPGPU-Sim PTX: 4000000 instructions simulated : ctaid=(9,3,0) tid=(15,6,0)
GPGPU-Sim PTX: 4100000 instructions simulated : ctaid=(11,1,0) tid=(15,6,0)
GPGPU-Sim uArch: cycles simulated: 15500  inst.: 4043216 (ipc=260.9) sim_rate=89849 (inst/sec) elapsed = 0:0:00:45 / Tue May 12 18:45:53 2015
GPGPU-Sim PTX: 4200000 instructions simulated : ctaid=(8,3,0) tid=(15,2,0)
GPGPU-Sim PTX: 4300000 instructions simulated : ctaid=(6,1,0) tid=(12,6,0)
GPGPU-Sim uArch: cycles simulated: 16000  inst.: 4273186 (ipc=267.1) sim_rate=90918 (inst/sec) elapsed = 0:0:00:47 / Tue May 12 18:45:55 2015
GPGPU-Sim PTX: 4400000 instructions simulated : ctaid=(1,2,0) tid=(0,0,0)
GPGPU-Sim PTX: 4500000 instructions simulated : ctaid=(7,4,0) tid=(15,0,0)
GPGPU-Sim PTX: 4600000 instructions simulated : ctaid=(15,1,0) tid=(15,4,0)
GPGPU-Sim uArch: cycles simulated: 16500  inst.: 4502773 (ipc=272.9) sim_rate=91893 (inst/sec) elapsed = 0:0:00:49 / Tue May 12 18:45:57 2015
GPGPU-Sim PTX: 4700000 instructions simulated : ctaid=(13,2,0) tid=(3,2,0)
GPGPU-Sim PTX: 4800000 instructions simulated : ctaid=(1,4,0) tid=(3,2,0)
GPGPU-Sim uArch: cycles simulated: 17000  inst.: 4733980 (ipc=278.5) sim_rate=92823 (inst/sec) elapsed = 0:0:00:51 / Tue May 12 18:45:59 2015
GPGPU-Sim PTX: 4900000 instructions simulated : ctaid=(11,0,0) tid=(3,6,0)
GPGPU-Sim PTX: 5000000 instructions simulated : ctaid=(7,0,0) tid=(15,1,0)
GPGPU-Sim PTX: 5100000 instructions simulated : ctaid=(8,4,0) tid=(11,5,0)
GPGPU-Sim uArch: cycles simulated: 17500  inst.: 4964900 (ipc=283.7) sim_rate=93677 (inst/sec) elapsed = 0:0:00:53 / Tue May 12 18:46:01 2015
GPGPU-Sim PTX: 5200000 instructions simulated : ctaid=(10,4,0) tid=(15,0,0)
GPGPU-Sim PTX: 5300000 instructions simulated : ctaid=(0,3,0) tid=(15,0,0)
GPGPU-Sim uArch: cycles simulated: 18000  inst.: 5190416 (ipc=288.4) sim_rate=94371 (inst/sec) elapsed = 0:0:00:55 / Tue May 12 18:46:03 2015
GPGPU-Sim PTX: 5400000 instructions simulated : ctaid=(2,4,0) tid=(15,2,0)
GPGPU-Sim PTX: 5500000 instructions simulated : ctaid=(11,2,0) tid=(15,0,0)
GPGPU-Sim uArch: cycles simulated: 18500  inst.: 5410640 (ipc=292.5) sim_rate=94923 (inst/sec) elapsed = 0:0:00:57 / Tue May 12 18:46:05 2015
GPGPU-Sim PTX: 5600000 instructions simulated : ctaid=(3,2,0) tid=(3,1,0)
GPGPU-Sim PTX: 5700000 instructions simulated : ctaid=(14,3,0) tid=(10,5,0)
GPGPU-Sim PTX: 5800000 instructions simulated : ctaid=(7,4,0) tid=(10,1,0)
GPGPU-Sim uArch: cycles simulated: 19000  inst.: 5638434 (ipc=296.8) sim_rate=97214 (inst/sec) elapsed = 0:0:00:58 / Tue May 12 18:46:06 2015
GPGPU-Sim PTX: 5900000 instructions simulated : ctaid=(7,2,0) tid=(14,7,0)
GPGPU-Sim PTX: 6000000 instructions simulated : ctaid=(10,0,0) tid=(12,0,0)
GPGPU-Sim uArch: cycles simulated: 19500  inst.: 5863986 (ipc=300.7) sim_rate=97733 (inst/sec) elapsed = 0:0:01:00 / Tue May 12 18:46:08 2015
GPGPU-Sim PTX: 6100000 instructions simulated : ctaid=(3,4,0) tid=(1,6,0)
GPGPU-Sim PTX: 6200000 instructions simulated : ctaid=(9,0,0) tid=(1,6,0)
GPGPU-Sim uArch: cycles simulated: 20000  inst.: 6091586 (ipc=304.6) sim_rate=98251 (inst/sec) elapsed = 0:0:01:02 / Tue May 12 18:46:10 2015
GPGPU-Sim PTX: 6300000 instructions simulated : ctaid=(0,4,0) tid=(14,4,0)
GPGPU-Sim PTX: 6400000 instructions simulated : ctaid=(10,0,0) tid=(9,2,0)
GPGPU-Sim PTX: 6500000 instructions simulated : ctaid=(4,3,0) tid=(5,5,0)
GPGPU-Sim uArch: cycles simulated: 20500  inst.: 6324480 (ipc=308.5) sim_rate=98820 (inst/sec) elapsed = 0:0:01:04 / Tue May 12 18:46:12 2015
GPGPU-Sim PTX: 6600000 instructions simulated : ctaid=(10,3,0) tid=(9,0,0)
GPGPU-Sim PTX: 6700000 instructions simulated : ctaid=(3,4,0) tid=(0,7,0)
GPGPU-Sim uArch: cycles simulated: 21000  inst.: 6556846 (ipc=312.2) sim_rate=99346 (inst/sec) elapsed = 0:0:01:06 / Tue May 12 18:46:14 2015
GPGPU-Sim PTX: 6800000 instructions simulated : ctaid=(15,1,0) tid=(0,1,0)
GPGPU-Sim PTX: 6900000 instructions simulated : ctaid=(4,0,0) tid=(0,5,0)
GPGPU-Sim uArch: cycles simulated: 21500  inst.: 6790414 (ipc=315.8) sim_rate=99859 (inst/sec) elapsed = 0:0:01:08 / Tue May 12 18:46:16 2015
GPGPU-Sim PTX: 7000000 instructions simulated : ctaid=(14,1,0) tid=(0,1,0)
GPGPU-Sim PTX: 7100000 instructions simulated : ctaid=(7,0,0) tid=(0,7,0)
GPGPU-Sim PTX: 7200000 instructions simulated : ctaid=(15,3,0) tid=(3,7,0)
GPGPU-Sim uArch: cycles simulated: 22000  inst.: 7020844 (ipc=319.1) sim_rate=100297 (inst/sec) elapsed = 0:0:01:10 / Tue May 12 18:46:18 2015
GPGPU-Sim PTX: 7300000 instructions simulated : ctaid=(10,2,0) tid=(3,3,0)
GPGPU-Sim PTX: 7400000 instructions simulated : ctaid=(14,2,0) tid=(3,5,0)
GPGPU-Sim uArch: cycles simulated: 22500  inst.: 7252844 (ipc=322.3) sim_rate=100733 (inst/sec) elapsed = 0:0:01:12 / Tue May 12 18:46:20 2015
GPGPU-Sim PTX: 7500000 instructions simulated : ctaid=(7,3,0) tid=(3,5,0)
GPGPU-Sim PTX: 7600000 instructions simulated : ctaid=(10,1,0) tid=(3,1,0)
GPGPU-Sim uArch: cycles simulated: 23000  inst.: 7483884 (ipc=325.4) sim_rate=101133 (inst/sec) elapsed = 0:0:01:14 / Tue May 12 18:46:22 2015
GPGPU-Sim PTX: 7700000 instructions simulated : ctaid=(8,4,0) tid=(3,5,0)
GPGPU-Sim PTX: 7800000 instructions simulated : ctaid=(14,1,0) tid=(3,1,0)
GPGPU-Sim PTX: 7900000 instructions simulated : ctaid=(11,2,0) tid=(11,0,0)
GPGPU-Sim uArch: cycles simulated: 23500  inst.: 7712308 (ipc=328.2) sim_rate=101477 (inst/sec) elapsed = 0:0:01:16 / Tue May 12 18:46:24 2015
GPGPU-Sim PTX: 8000000 instructions simulated : ctaid=(13,3,0) tid=(11,2,0)
GPGPU-Sim PTX: 8100000 instructions simulated : ctaid=(6,4,0) tid=(11,2,0)
GPGPU-Sim uArch: cycles simulated: 24000  inst.: 7944820 (ipc=331.0) sim_rate=101856 (inst/sec) elapsed = 0:0:01:18 / Tue May 12 18:46:26 2015
GPGPU-Sim PTX: 8200000 instructions simulated : ctaid=(4,3,0) tid=(11,6,0)
GPGPU-Sim PTX: 8300000 instructions simulated : ctaid=(14,1,0) tid=(11,6,0)
GPGPU-Sim uArch: cycles simulated: 24500  inst.: 8178488 (ipc=333.8) sim_rate=102231 (inst/sec) elapsed = 0:0:01:20 / Tue May 12 18:46:28 2015
GPGPU-Sim PTX: 8400000 instructions simulated : ctaid=(15,0,0) tid=(5,6,0)
GPGPU-Sim PTX: 8500000 instructions simulated : ctaid=(5,4,0) tid=(7,6,0)
GPGPU-Sim PTX: 8600000 instructions simulated : ctaid=(10,3,0) tid=(13,1,0)
GPGPU-Sim uArch: cycles simulated: 25000  inst.: 8411230 (ipc=336.4) sim_rate=102575 (inst/sec) elapsed = 0:0:01:22 / Tue May 12 18:46:30 2015
GPGPU-Sim PTX: 8700000 instructions simulated : ctaid=(7,3,0) tid=(9,3,0)
GPGPU-Sim PTX: 8800000 instructions simulated : ctaid=(5,3,0) tid=(10,4,0)
GPGPU-Sim uArch: cycles simulated: 25500  inst.: 8640434 (ipc=338.8) sim_rate=102862 (inst/sec) elapsed = 0:0:01:24 / Tue May 12 18:46:32 2015
GPGPU-Sim PTX: 8900000 instructions simulated : ctaid=(10,4,0) tid=(11,7,0)
GPGPU-Sim PTX: 9000000 instructions simulated : ctaid=(4,1,0) tid=(7,4,0)
GPGPU-Sim PTX: 9100000 instructions simulated : ctaid=(4,2,0) tid=(8,4,0)
GPGPU-Sim uArch: cycles simulated: 26000  inst.: 8865526 (ipc=341.0) sim_rate=103087 (inst/sec) elapsed = 0:0:01:26 / Tue May 12 18:46:34 2015
GPGPU-Sim PTX: 9200000 instructions simulated : ctaid=(15,2,0) tid=(11,0,0)
GPGPU-Sim uArch: Shader 0 finished CTA #4 (26416,0), 4 CTAs running
GPGPU-Sim PTX: 9300000 instructions simulated : ctaid=(15,0,0) tid=(11,5,0)
GPGPU-Sim uArch: core:  0, cta: 4 initialized @(26417,0)
GPGPU-Sim uArch: Shader 3 finished CTA #4 (26451,0), 4 CTAs running
GPGPU-Sim uArch: core:  3, cta: 4 initialized @(26452,0)
GPGPU-Sim uArch: cycles simulated: 26500  inst.: 9093543 (ipc=343.2) sim_rate=103335 (inst/sec) elapsed = 0:0:01:28 / Tue May 12 18:46:36 2015
GPGPU-Sim uArch: Shader 5 finished CTA #4 (26514,0), 4 CTAs running
GPGPU-Sim uArch: core:  5, cta: 4 initialized @(26515,0)
GPGPU-Sim PTX: 9400000 instructions simulated : ctaid=(6,3,0) tid=(12,7,0)
GPGPU-Sim uArch: Shader 2 finished CTA #4 (26647,0), 4 CTAs running
GPGPU-Sim uArch: core:  2, cta: 4 initialized @(26648,0)
GPGPU-Sim uArch: Shader 2 finished CTA #3 (26705,0), 4 CTAs running
GPGPU-Sim uArch: core:  2, cta: 3 initialized @(26706,0)
GPGPU-Sim uArch: Shader 5 finished CTA #2 (26810,0), 4 CTAs running
GPGPU-Sim uArch: core:  5, cta: 2 initialized @(26811,0)
GPGPU-Sim PTX: 9500000 instructions simulated : ctaid=(3,0,0) tid=(5,6,0)
GPGPU-Sim uArch: Shader 5 finished CTA #3 (26871,0), 4 CTAs running
GPGPU-Sim uArch: core:  5, cta: 3 initialized @(26872,0)
GPGPU-Sim uArch: Shader 6 finished CTA #3 (26893,0), 4 CTAs running
GPGPU-Sim uArch: core:  6, cta: 3 initialized @(26894,0)
GPGPU-Sim uArch: Shader 8 finished CTA #3 (26971,0), 4 CTAs running
GPGPU-Sim uArch: core:  8, cta: 3 initialized @(26972,0)
GPGPU-Sim uArch: cycles simulated: 27000  inst.: 9311974 (ipc=344.9) sim_rate=103466 (inst/sec) elapsed = 0:0:01:30 / Tue May 12 18:46:38 2015
GPGPU-Sim PTX: 9600000 instructions simulated : ctaid=(7,4,0) tid=(1,4,0)
GPGPU-Sim uArch: Shader 0 finished CTA #3 (27169,0), 4 CTAs running
GPGPU-Sim uArch: Shader 7 finished CTA #3 (27169,0), 4 CTAs running
GPGPU-Sim uArch: core:  0, cta: 3 initialized @(27170,0)
GPGPU-Sim uArch: core:  7, cta: 3 initialized @(27170,0)
GPGPU-Sim uArch: Shader 3 finished CTA #2 (27170,0), 4 CTAs running
GPGPU-Sim uArch: core:  3, cta: 2 initialized @(27171,0)
GPGPU-Sim uArch: Shader 0 finished CTA #2 (27179,0), 4 CTAs running
GPGPU-Sim uArch: core:  0, cta: 2 initialized @(27180,0)
GPGPU-Sim uArch: Shader 4 finished CTA #4 (27188,0), 4 CTAs running
GPGPU-Sim uArch: core:  4, cta: 4 initialized @(27189,0)
GPGPU-Sim uArch: Shader 7 finished CTA #4 (27229,0), 4 CTAs running
GPGPU-Sim uArch: core:  7, cta: 4 initialized @(27230,0)
GPGPU-Sim uArch: Shader 1 finished CTA #4 (27248,0), 4 CTAs running
GPGPU-Sim uArch: core:  1, cta: 4 initialized @(27249,0)
GPGPU-Sim uArch: Shader 4 finished CTA #2 (27250,0), 4 CTAs running
GPGPU-Sim uArch: core:  4, cta: 2 initialized @(27251,0)
GPGPU-Sim uArch: Shader 1 finished CTA #3 (27293,0), 4 CTAs running
GPGPU-Sim uArch: core:  1, cta: 3 initialized @(27294,0)
GPGPU-Sim PTX: 9700000 instructions simulated : ctaid=(1,1,0) tid=(6,2,0)
GPGPU-Sim uArch: cycles simulated: 27500  inst.: 9509870 (ipc=345.8) sim_rate=103368 (inst/sec) elapsed = 0:0:01:32 / Tue May 12 18:46:40 2015
GPGPU-Sim PTX: 9800000 instructions simulated : ctaid=(10,5,0) tid=(12,5,0)
GPGPU-Sim uArch: Shader 10 finished CTA #4 (27829,0), 4 CTAs running
GPGPU-Sim uArch: core: 10, cta: 4 initialized @(27830,0)
GPGPU-Sim PTX: 9900000 instructions simulated : ctaid=(5,0,0) tid=(7,2,0)
GPGPU-Sim uArch: cycles simulated: 28000  inst.: 9671963 (ipc=345.4) sim_rate=103999 (inst/sec) elapsed = 0:0:01:33 / Tue May 12 18:46:41 2015
GPGPU-Sim uArch: Shader 9 finished CTA #3 (28106,0), 4 CTAs running
GPGPU-Sim uArch: core:  9, cta: 3 initialized @(28107,0)
GPGPU-Sim uArch: Shader 9 finished CTA #4 (28177,0), 4 CTAs running
GPGPU-Sim uArch: core:  9, cta: 4 initialized @(28178,0)
GPGPU-Sim uArch: Shader 2 finished CTA #2 (28186,0), 4 CTAs running
GPGPU-Sim uArch: core:  2, cta: 2 initialized @(28187,0)
GPGPU-Sim PTX: 10000000 instructions simulated : ctaid=(8,3,0) tid=(4,7,0)
GPGPU-Sim uArch: Shader 3 finished CTA #3 (28389,0), 4 CTAs running
GPGPU-Sim uArch: core:  3, cta: 3 initialized @(28390,0)
GPGPU-Sim PTX: 10100000 instructions simulated : ctaid=(12,0,0) tid=(3,4,0)
GPGPU-Sim uArch: cycles simulated: 28500  inst.: 9845410 (ipc=345.5) sim_rate=103635 (inst/sec) elapsed = 0:0:01:35 / Tue May 12 18:46:43 2015
GPGPU-Sim PTX: 10200000 instructions simulated : ctaid=(6,2,0) tid=(9,7,0)
GPGPU-Sim uArch: Shader 4 finished CTA #3 (28836,0), 4 CTAs running
GPGPU-Sim uArch: core:  4, cta: 3 initialized @(28837,0)
GPGPU-Sim PTX: 10300000 instructions simulated : ctaid=(13,4,0) tid=(12,7,0)
GPGPU-Sim uArch: cycles simulated: 29000  inst.: 10039016 (ipc=346.2) sim_rate=103495 (inst/sec) elapsed = 0:0:01:37 / Tue May 12 18:46:45 2015
GPGPU-Sim uArch: Shader 1 finished CTA #2 (29092,0), 4 CTAs running
GPGPU-Sim uArch: core:  1, cta: 2 initialized @(29093,0)
GPGPU-Sim PTX: 10400000 instructions simulated : ctaid=(11,5,0) tid=(10,3,0)
GPGPU-Sim PTX: 10500000 instructions simulated : ctaid=(8,5,0) tid=(2,0,0)
GPGPU-Sim uArch: cycles simulated: 29500  inst.: 10240002 (ipc=347.1) sim_rate=103434 (inst/sec) elapsed = 0:0:01:39 / Tue May 12 18:46:47 2015
GPGPU-Sim PTX: 10600000 instructions simulated : ctaid=(0,5,0) tid=(11,7,0)
GPGPU-Sim PTX: 10700000 instructions simulated : ctaid=(10,5,0) tid=(2,4,0)
GPGPU-Sim uArch: cycles simulated: 30000  inst.: 10441503 (ipc=348.1) sim_rate=103381 (inst/sec) elapsed = 0:0:01:41 / Tue May 12 18:46:49 2015
GPGPU-Sim uArch: Shader 8 finished CTA #2 (30015,0), 4 CTAs running
GPGPU-Sim uArch: core:  8, cta: 2 initialized @(30016,0)
GPGPU-Sim PTX: 10800000 instructions simulated : ctaid=(8,5,0) tid=(9,3,0)
GPGPU-Sim PTX: 10900000 instructions simulated : ctaid=(2,5,0) tid=(4,5,0)
GPGPU-Sim uArch: cycles simulated: 30500  inst.: 10641006 (ipc=348.9) sim_rate=103310 (inst/sec) elapsed = 0:0:01:43 / Tue May 12 18:46:51 2015
GPGPU-Sim PTX: 11000000 instructions simulated : ctaid=(11,4,0) tid=(8,0,0)
GPGPU-Sim PTX: 11100000 instructions simulated : ctaid=(8,3,0) tid=(11,5,0)
GPGPU-Sim uArch: cycles simulated: 31000  inst.: 10837750 (ipc=349.6) sim_rate=103216 (inst/sec) elapsed = 0:0:01:45 / Tue May 12 18:46:53 2015
GPGPU-Sim PTX: 11200000 instructions simulated : ctaid=(1,0,0) tid=(14,3,0)
GPGPU-Sim PTX: 11300000 instructions simulated : ctaid=(4,5,0) tid=(2,2,0)
GPGPU-Sim uArch: cycles simulated: 31500  inst.: 11025662 (ipc=350.0) sim_rate=103043 (inst/sec) elapsed = 0:0:01:47 / Tue May 12 18:46:55 2015
GPGPU-Sim PTX: 11400000 instructions simulated : ctaid=(14,4,0) tid=(5,7,0)
GPGPU-Sim PTX: 11500000 instructions simulated : ctaid=(4,1,0) tid=(13,7,0)
GPGPU-Sim uArch: cycles simulated: 32000  inst.: 11212530 (ipc=350.4) sim_rate=103819 (inst/sec) elapsed = 0:0:01:48 / Tue May 12 18:46:56 2015
GPGPU-Sim uArch: Shader 6 finished CTA #4 (32060,0), 4 CTAs running
GPGPU-Sim uArch: core:  6, cta: 4 initialized @(32061,0)
GPGPU-Sim PTX: 11600000 instructions simulated : ctaid=(13,4,0) tid=(11,1,0)
GPGPU-Sim uArch: Shader 14 finished CTA #2 (32238,0), 4 CTAs running
GPGPU-Sim uArch: core: 14, cta: 2 initialized @(32239,0)
GPGPU-Sim PTX: 11700000 instructions simulated : ctaid=(8,4,0) tid=(11,7,0)
GPGPU-Sim uArch: cycles simulated: 32500  inst.: 11396451 (ipc=350.7) sim_rate=103604 (inst/sec) elapsed = 0:0:01:50 / Tue May 12 18:46:58 2015
GPGPU-Sim uArch: Shader 14 finished CTA #0 (32648,0), 4 CTAs running
GPGPU-Sim uArch: core: 14, cta: 0 initialized @(32649,0)
GPGPU-Sim PTX: 11800000 instructions simulated : ctaid=(15,4,0) tid=(5,6,0)
GPGPU-Sim PTX: 11900000 instructions simulated : ctaid=(14,5,0) tid=(1,5,0)
GPGPU-Sim uArch: cycles simulated: 33000  inst.: 11591242 (ipc=351.2) sim_rate=102577 (inst/sec) elapsed = 0:0:01:53 / Tue May 12 18:47:01 2015
GPGPU-Sim uArch: Shader 1 finished CTA #1 (33062,0), 4 CTAs running
GPGPU-Sim uArch: core:  1, cta: 1 initialized @(33063,0)
GPGPU-Sim PTX: 12000000 instructions simulated : ctaid=(7,6,0) tid=(4,7,0)
GPGPU-Sim PTX: 12100000 instructions simulated : ctaid=(7,2,0) tid=(13,4,0)
GPGPU-Sim uArch: cycles simulated: 33500  inst.: 11800102 (ipc=352.2) sim_rate=102609 (inst/sec) elapsed = 0:0:01:55 / Tue May 12 18:47:03 2015
GPGPU-Sim PTX: 12200000 instructions simulated : ctaid=(6,5,0) tid=(6,0,0)
GPGPU-Sim PTX: 12300000 instructions simulated : ctaid=(15,4,0) tid=(0,7,0)
GPGPU-Sim uArch: cycles simulated: 34000  inst.: 12001568 (ipc=353.0) sim_rate=101708 (inst/sec) elapsed = 0:0:01:58 / Tue May 12 18:47:06 2015
GPGPU-Sim PTX: 12400000 instructions simulated : ctaid=(4,5,0) tid=(6,2,0)
GPGPU-Sim uArch: Shader 6 finished CTA #2 (34395,0), 4 CTAs running
GPGPU-Sim uArch: core:  6, cta: 2 initialized @(34396,0)
GPGPU-Sim PTX: 12500000 instructions simulated : ctaid=(13,5,0) tid=(15,6,0)
GPGPU-Sim uArch: cycles simulated: 34500  inst.: 12191927 (ipc=353.4) sim_rate=101599 (inst/sec) elapsed = 0:0:02:00 / Tue May 12 18:47:08 2015
GPGPU-Sim uArch: Shader 3 finished CTA #1 (34531,0), 4 CTAs running
GPGPU-Sim uArch: core:  3, cta: 1 initialized @(34532,0)
GPGPU-Sim uArch: Shader 0 finished CTA #1 (34690,0), 4 CTAs running
GPGPU-Sim uArch: core:  0, cta: 1 initialized @(34691,0)
GPGPU-Sim PTX: 12600000 instructions simulated : ctaid=(7,2,0) tid=(9,1,0)
GPGPU-Sim PTX: 12700000 instructions simulated : ctaid=(11,6,0) tid=(7,6,0)
GPGPU-Sim uArch: cycles simulated: 35000  inst.: 12372672 (ipc=353.5) sim_rate=101415 (inst/sec) elapsed = 0:0:02:02 / Tue May 12 18:47:10 2015
GPGPU-Sim uArch: Shader 4 finished CTA #1 (35090,0), 4 CTAs running
GPGPU-Sim uArch: core:  4, cta: 1 initialized @(35091,0)
GPGPU-Sim PTX: 12800000 instructions simulated : ctaid=(12,4,0) tid=(3,5,0)
GPGPU-Sim PTX: 12900000 instructions simulated : ctaid=(9,3,0) tid=(1,4,0)
GPGPU-Sim uArch: cycles simulated: 35500  inst.: 12565721 (ipc=354.0) sim_rate=101336 (inst/sec) elapsed = 0:0:02:04 / Tue May 12 18:47:12 2015
GPGPU-Sim PTX: 13000000 instructions simulated : ctaid=(11,5,0) tid=(0,6,0)
GPGPU-Sim uArch: Shader 2 finished CTA #0 (35936,0), 4 CTAs running
GPGPU-Sim uArch: core:  2, cta: 0 initialized @(35937,0)
GPGPU-Sim PTX: 13100000 instructions simulated : ctaid=(9,4,0) tid=(7,2,0)
GPGPU-Sim uArch: cycles simulated: 36000  inst.: 12756157 (ipc=354.3) sim_rate=101239 (inst/sec) elapsed = 0:0:02:06 / Tue May 12 18:47:14 2015
GPGPU-Sim uArch: Shader 2 finished CTA #1 (36220,0), 4 CTAs running
GPGPU-Sim uArch: core:  2, cta: 1 initialized @(36221,0)
GPGPU-Sim PTX: 13200000 instructions simulated : ctaid=(8,4,0) tid=(5,3,0)
GPGPU-Sim uArch: cycles simulated: 36500  inst.: 12924310 (ipc=354.1) sim_rate=101766 (inst/sec) elapsed = 0:0:02:07 / Tue May 12 18:47:15 2015
GPGPU-Sim PTX: 13300000 instructions simulated : ctaid=(14,0,0) tid=(5,0,0)
GPGPU-Sim uArch: Shader 7 finished CTA #2 (36577,0), 4 CTAs running
GPGPU-Sim uArch: core:  7, cta: 2 initialized @(36578,0)
GPGPU-Sim PTX: 13400000 instructions simulated : ctaid=(15,4,0) tid=(11,2,0)
GPGPU-Sim uArch: cycles simulated: 37000  inst.: 13095183 (ipc=353.9) sim_rate=101513 (inst/sec) elapsed = 0:0:02:09 / Tue May 12 18:47:17 2015
GPGPU-Sim PTX: 13500000 instructions simulated : ctaid=(2,6,0) tid=(0,5,0)
GPGPU-Sim PTX: 13600000 instructions simulated : ctaid=(2,6,0) tid=(14,6,0)
GPGPU-Sim uArch: cycles simulated: 37500  inst.: 13265757 (ipc=353.8) sim_rate=101265 (inst/sec) elapsed = 0:0:02:11 / Tue May 12 18:47:19 2015
GPGPU-Sim PTX: 13700000 instructions simulated : ctaid=(12,5,0) tid=(10,0,0)
GPGPU-Sim PTX: 13800000 instructions simulated : ctaid=(14,4,0) tid=(6,0,0)
GPGPU-Sim uArch: cycles simulated: 38000  inst.: 13451404 (ipc=354.0) sim_rate=101904 (inst/sec) elapsed = 0:0:02:12 / Tue May 12 18:47:20 2015
GPGPU-Sim PTX: 13900000 instructions simulated : ctaid=(12,4,0) tid=(2,4,0)
GPGPU-Sim PTX: 14000000 instructions simulated : ctaid=(5,6,0) tid=(13,7,0)
GPGPU-Sim uArch: cycles simulated: 38500  inst.: 13643083 (ipc=354.4) sim_rate=101814 (inst/sec) elapsed = 0:0:02:14 / Tue May 12 18:47:22 2015
GPGPU-Sim PTX: 14100000 instructions simulated : ctaid=(7,0,0) tid=(10,2,0)
GPGPU-Sim PTX: 14200000 instructions simulated : ctaid=(1,6,0) tid=(10,4,0)
GPGPU-Sim uArch: cycles simulated: 39000  inst.: 13838697 (ipc=354.8) sim_rate=101755 (inst/sec) elapsed = 0:0:02:16 / Tue May 12 18:47:24 2015
GPGPU-Sim PTX: 14300000 instructions simulated : ctaid=(8,6,0) tid=(1,0,0)
GPGPU-Sim PTX: 14400000 instructions simulated : ctaid=(8,6,0) tid=(2,0,0)
GPGPU-Sim uArch: cycles simulated: 39500  inst.: 14028200 (ipc=355.1) sim_rate=102395 (inst/sec) elapsed = 0:0:02:17 / Tue May 12 18:47:25 2015
GPGPU-Sim uArch: Shader 8 finished CTA #4 (39550,0), 4 CTAs running
GPGPU-Sim uArch: core:  8, cta: 4 initialized @(39551,0)
GPGPU-Sim PTX: 14500000 instructions simulated : ctaid=(8,1,0) tid=(1,4,0)
GPGPU-Sim PTX: 14600000 instructions simulated : ctaid=(13,5,0) tid=(12,6,0)
GPGPU-Sim uArch: cycles simulated: 40000  inst.: 14223056 (ipc=355.6) sim_rate=102324 (inst/sec) elapsed = 0:0:02:19 / Tue May 12 18:47:27 2015
GPGPU-Sim PTX: 14700000 instructions simulated : ctaid=(15,5,0) tid=(8,6,0)
[...]
maxmrqlatency = 782 
maxdqlatency = 0 
maxmflatency = 1962 
averagemflatency = 236 
max_icnt2mem_latency = 1359 
max_icnt2sh_latency = 204560 
mrq_lat_table:11769 	1361 	994 	1753 	4167 	3005 	2850 	1653 	276 	22 	0 	0 	0 	0 	0 	0 	0 	0 	0 	0 	0 	0 	0 	0 	0 	0 	0 	0 	0 	0 	0 	0 	
dq_lat_table:0 	0 	0 	0 	0 	0 	0 	0 	0 	0 	0 	0 	0 	0 	0 	0 	0 	0 	0 	0 	0 	0 	0 	0 	0 	0 	0 	0 	0 	0 	0 	0 	
mf_lat_table:0 	0 	0 	0 	0 	0 	0 	51021 	6377 	3702 	987 	0 	0 	0 	0 	0 	0 	0 	0 	0 	0 	0 	0 	0 	0 	0 	0 	0 	0 	0 	0 	0 	
icnt2mem_lat_table:0 	0 	0 	44184 	17713 	11384 	16189 	1294 	1578 	549 	24 	0 	0 	0 	0 	0 	0 	0 	0 	0 	0 	0 	0 	0 	
icnt2sh_lat_table:0 	0 	0 	5618 	3776 	984 	111 	0 	0 	204 	483 	1183 	2804 	2897 	5033 	7719 	13684 	17591 	0 	0 	0 	0 	0 	0 	
mf_lat_pw_table:0 	0 	0 	0 	0 	0 	0 	379 	8 	15 	3 	0 	0 	0 	0 	0 	0 	0 	0 	0 	0 	0 	0 	0 	0 	0 	0 	0 	0 	0 	0 	0 	
maximum concurrent accesses to same row:
dram[0]:        40        52        52        48        22        20        27        23        18        23        27        16        20        16        26        24 
dram[1]:        46        46        44        42        18        20        23        31        41        22        23        16        30        19        26        28 
dram[2]:        52        62        60        52        24        26        18        25        31        22        22        15        21        20        32        34 
dram[3]:        56        56        52        54        20        16        25        24        44        35        16        16        20        18        26        34 
dram[4]:        54        58        56        54        22        24        22        33        16        25        21        13        20        39        28        54 
dram[5]:        56        54        54        54        18        24        16        32        36        21        28        26        11        15        44        28 
maximum service time to same row:
dram[0]:     24074     28796     25592     33416     26456     39768     21926     14853     23888     21041     26207     41183     57625     48203     25572     36117 
dram[1]:     29331     18080     25228     42871     18185     47763     13982     19143     20001     25822     24691     41269     70261     55063     47709     29013 
dram[2]:     24625     23853     39935     36865     47046     37081     17192     28244     23977     23847     28733     31577     52012     46990     45029     30572 
dram[3]:     21691     19664     57169     62689     42009     27334     20692     20274     22008     25290     25305     31869     47875     56597     45705     40507 
dram[4]:     24707     25387     32388     45647     41249     41991     26975     23921     23024     25554     30639     40120     50403     83338     58849     31799 
dram[5]:     14524     58263     51208     27836     20294     38793     17569     21270     22600     21519     35894     23306     27024     26388     43459     24286 
average row accesses per activate:
dram[0]:  5.638298  6.511628  7.257143  7.515152  4.573771  3.333333  3.425287  3.557895  3.876405  5.080645  4.400000  3.574713  4.054794  4.264706  4.692307  4.771930 
dram[1]:  3.818182  4.500000  4.979592  5.634146  3.122449  3.573333  3.207921  4.129870  3.782609  3.380435  3.533333  3.808219  3.785714  5.000000  4.793103  4.385965 
dram[2]:  4.645161  5.955555  6.355556  6.564103  3.753425  4.323944  3.760870  4.315069  4.154762  3.877778  3.855556  3.910256  4.112676  4.750000  5.540000  4.833333 
dram[3]:  4.771930  5.595745  7.285714  5.458333  4.075758  3.373737  3.483516  3.566667  4.166667  3.645161  3.948052  3.948718  4.064935  3.894118  4.607143  4.516129 
dram[4]:  4.901961  6.046512  6.351351  5.840000  3.628205  3.433735  3.972973  3.494845  3.724138  3.759036  3.433735  4.012987  4.833333  5.259259  5.295455  4.924528 
dram[5]:  4.857143  7.218750  5.468085  6.648649  3.133333  3.513514  3.017544  3.588235  4.113924  4.304348  4.454545  4.268657  3.451613  4.292308  5.469388  4.278688 
average row locality = 27850/6569 = 4.239610
number of total memory accesses made:
dram[0]:         0         0         0         0         0         0         0         0         0         0         0         0         0         0         0         0 
dram[1]:         0         0         0         0         0         0         0         0         0         0         0         0         0         0         0         0 
dram[2]:         0         0         0         0         0         0         0         0         0         0         0         0         0         0         0         0 
dram[3]:         0         0         0         0         0         0         0         0         0         0         0         0         0         0         0         0 
dram[4]:         0         0         0         0         0         0         0         0         0         0         0         0         0         0         0         0 
dram[5]:         0         0         0         0         0         0         0         0         0         0         0         0         0         0         0         0 
total accesses: 0
min_bank_accesses = 0!
min_chip_accesses = 0!
number of total read accesses:
dram[0]:       119       122       115       110       116       123       126       134       142       129       121       134       133       131       109       120 
dram[1]:       118       114       104       102       130       113       136       126       142       129       135       122       140       131       122       112 
dram[2]:       124       119       125       113       118       129       137       132       140       142       146       130       130       138       122       114 
dram[3]:       122       115       110       113       113       140       129       132       134       137       129       135       138       147       114       124 
dram[4]:       114       117       103       126       119       118       124       137       134       128       123       134       133       128       106       116 
dram[5]:       123       105       110       109       121       107       140       124       134       123       130       125       144       126       118       116 
total reads: 11966
bank skew: 147/102 = 1.44
chip skew: 2059/1955 = 1.05
number of total write accesses:
dram[0]:       146       158       139       138       163       167       172       204       203       186       165       177       163       159       135       152 
dram[1]:       134       147       140       129       176       155       188       192       206       182       183       156       178       164       156       138 
dram[2]:       164       149       161       143       156       178       209       183       209       207       201       175       162       166       155       147 
dram[3]:       150       148       145       149       156       194       188       189       191       202       175       173       175       184       144       156 
dram[4]:       136       143       132       166       164       167       170       202       190       184       162       175       157       156       127       145 
dram[5]:       149       126       147       137       161       153       204       181       191       174       164       161       177       153       150       145 
total reads: 15884
bank skew: 209/126 = 1.66
chip skew: 2765/2573 = 1.07
average mf latency per bank:
dram[0]:        532       422       523       524       559       501       600       524       507       534       577       557       557       590       573       508
dram[1]:        570       449       494       538       460       496       504       490       467       511       498       563       504       536       482       523
dram[2]:        490       517       487       550       603       519       567       599       507       499       517       577       594       581       535       548
dram[3]:        465       508       507       493       550       437       518       517       504       475       552       539       521       485       519       487
dram[4]:        538       492       567       476       574       575       609       561       566       548       601       568       582       639       654       536
dram[5]:        461       534       500       516       494       512       452       545       513       526       543       547       470       585       539       475
maximum mf latency per bank:
dram[0]:       1445      1466      1495      1360      1747      1759      1672      1511      1689      1332      1527      1425      1504      1495      1433      1413
dram[1]:       1332      1377      1147      1164      1097      1596       948       951      1448      1353      1240      1177      1315      1010      1189      1344
dram[2]:       1406      1519      1649      1478      1839      1797      1887      1833      1624      1890      1962      1534      1546      1883      1683      1401
dram[3]:       1333      1274      1467      1547      1503      1304      1165      1292      1264      1103      1529      1207       988      1335      1239       926
dram[4]:       1308      1426      1458      1577      1755      1727      1741      1688      1563      1749      1392      1563      1593      1560      1504      1527
dram[5]:       1241      1258      1404      1458      1383      1492      1206      1328      1295      1299       952       973      1149      1316      1294      1224

Number of Memory Banks Accessed per Memory Operation per Warp (from 0):
0	0	0	0	0	0	0	0	0	0	0	0	0	0	0	0	0	0	0	0	0	0	0	0	0	0	0	0	0	0	0	0	0	0	0	0	0	0	0	0	0	0	0	0	0	0	0	0	0	0	0	0	0	0	0	0	0	0	0	0	0	0	0	0	0	0	0	0	0	0	0	0	0	0	0	0	0	0	0	0	0	0	0	0	0	0	0	0	0	0	0	0	0	0	0	0	
Average # of Memory Banks Accessed per Memory Operation per Warp=-nan

position of mrq chosen
0	0	0	0	0	0	0	0	0	0	0	0	0	0	0	0	

average position of mrq chosen = -nan
Memory Partition 0: 
Cache L2_bank_000:
MSHR contents

Cache L2_bank_001:
MSHR contents

In Dram Latency Queue (total = 0): 
DRAM[0]: 16 bks, busW=4 BL=8 CL=12, tRRD=2 tCCD=6, tRCD=12 tRAS=28 tRP=12 tRC=40
n_cmd=270020 n_nop=259180 n_act=1041 n_pre=1025 n_req=4611 n_rd=3968 n_write=4806 bw_util=0.06499
n_activity=47669 dram_eff=0.3681
bk0: 238a 262539i bk1: 244a 263153i bk2: 230a 262877i bk3: 220a 262866i bk4: 232a 261078i bk5: 246a 259991i bk6: 252a 259475i bk7: 268a 258836i bk8: 284a 260518i bk9: 258a 261275i bk10: 242a 260844i bk11: 268a 260568i bk12: 266a 260668i bk13: 262a 261272i bk14: 218a 263068i bk15: 240a 261798i 
dram_util_bins: 0 0 0 0 0 0 0 0 0 0
dram_eff_bins: 0 0 0 0 0 0 0 0 0 0
mrqq: max=16 avg=0.761232
Memory Partition 1: 
Cache L2_bank_002:
MSHR contents

Cache L2_bank_003:
MSHR contents

In Dram Latency Queue (total = 0): 
DRAM[1]: 16 bks, busW=4 BL=8 CL=12, tRRD=2 tCCD=6, tRCD=12 tRAS=28 tRP=12 tRC=40
n_cmd=270020 n_nop=258917 n_act=1170 n_pre=1154 n_req=4600 n_rd=3952 n_write=4827 bw_util=0.06502
n_activity=47977 dram_eff=0.366
bk0: 236a 262763i bk1: 228a 262481i bk2: 208a 262803i bk3: 204a 263418i bk4: 260a 259399i bk5: 226a 260708i bk6: 272a 260363i bk7: 252a 260134i bk8: 284a 260245i bk9: 258a 260214i bk10: 270a 260427i bk11: 244a 260832i bk12: 280a 260308i bk13: 262a 261029i bk14: 244a 261936i bk15: 224a 262843i 
dram_util_bins: 0 0 0 0 0 0 0 0 0 0
dram_eff_bins: 0 0 0 0 0 0 0 0 0 0
mrqq: max=16 avg=0.663181
Memory Partition 2: 
Cache L2_bank_004:
MSHR contents

Cache L2_bank_005:
MSHR contents

In Dram Latency Queue (total = 0): 
DRAM[2]: 16 bks, busW=4 BL=8 CL=12, tRRD=2 tCCD=6, tRCD=12 tRAS=28 tRP=12 tRC=40
n_cmd=270020 n_nop=258662 n_act=1081 n_pre=1065 n_req=4824 n_rd=4118 n_write=5094 bw_util=0.06823
n_activity=51086 dram_eff=0.3606
bk0: 248a 263172i bk1: 238a 262773i bk2: 250a 262918i bk3: 226a 263204i bk4: 236a 261171i bk5: 258a 260805i bk6: 274a 259199i bk7: 264a 259376i bk8: 280a 260553i bk9: 284a 260303i bk10: 292a 260026i bk11: 260a 260407i bk12: 260a 261290i bk13: 276a 261011i bk14: 244a 262299i bk15: 228a 262502i 
dram_util_bins: 0 0 0 0 0 0 0 0 0 0
dram_eff_bins: 0 0 0 0 0 0 0 0 0 0
mrqq: max=16 avg=0.797611
Memory Partition 3: 
Cache L2_bank_006:
MSHR contents

Cache L2_bank_007:
MSHR contents

In Dram Latency Queue (total = 0): 
DRAM[3]: 16 bks, busW=4 BL=8 CL=12, tRRD=2 tCCD=6, tRCD=12 tRAS=28 tRP=12 tRC=40
n_cmd=270020 n_nop=258671 n_act=1139 n_pre=1123 n_req=4751 n_rd=4064 n_write=5023 bw_util=0.06731
n_activity=49474 dram_eff=0.3673
bk0: 244a 262748i bk1: 230a 262739i bk2: 220a 263295i bk3: 226a 263025i bk4: 226a 261832i bk5: 280a 259438i bk6: 258a 259947i bk7: 264a 259576i bk8: 268a 261204i bk9: 274a 260047i bk10: 258a 260712i bk11: 270a 260583i bk12: 276a 260958i bk13: 294a 260374i bk14: 228a 262632i bk15: 248a 262058i 
dram_util_bins: 0 0 0 0 0 0 0 0 0 0
dram_eff_bins: 0 0 0 0 0 0 0 0 0 0
mrqq: max=16 avg=0.699537
Memory Partition 4: 
Cache L2_bank_008:
MSHR contents

Cache L2_bank_009:
MSHR contents

In Dram Latency Queue (total = 0): 
DRAM[4]: 16 bks, busW=4 BL=8 CL=12, tRRD=2 tCCD=6, tRCD=12 tRAS=28 tRP=12 tRC=40
n_cmd=270020 n_nop=259285 n_act=1054 n_pre=1038 n_req=4536 n_rd=3920 n_write=4723 bw_util=0.06402
n_activity=46562 dram_eff=0.3712
bk0: 228a 263168i bk1: 234a 263257i bk2: 206a 263625i bk3: 252a 262588i bk4: 238a 261066i bk5: 236a 260322i bk6: 248a 260379i bk7: 274a 259359i bk8: 268a 260175i bk9: 256a 261337i bk10: 246a 260976i bk11: 268a 260595i bk12: 266a 260944i bk13: 256a 260921i bk14: 212a 263174i bk15: 232a 262981i 
dram_util_bins: 0 0 0 0 0 0 0 0 0 0
dram_eff_bins: 0 0 0 0 0 0 0 0 0 0
mrqq: max=16 avg=0.789916
Memory Partition 5: 
Cache L2_bank_010:
MSHR contents

Cache L2_bank_011:
MSHR contents

In Dram Latency Queue (total = 0): 
DRAM[5]: 16 bks, busW=4 BL=8 CL=12, tRRD=2 tCCD=6, tRCD=12 tRAS=28 tRP=12 tRC=40
n_cmd=270020 n_nop=259237 n_act=1084 n_pre=1068 n_req=4528 n_rd=3910 n_write=4721 bw_util=0.06393
n_activity=46849 dram_eff=0.3685
bk0: 246a 262898i bk1: 210a 263671i bk2: 220a 262867i bk3: 218a 263750i bk4: 242a 260958i bk5: 214a 261211i bk6: 280a 259093i bk7: 248a 260654i bk8: 268a 260900i bk9: 246a 261452i bk10: 260a 261316i bk11: 250a 260953i bk12: 288a 260558i bk13: 252a 261459i bk14: 236a 262471i bk15: 232a 262666i 
dram_util_bins: 0 0 0 0 0 0 0 0 0 0
dram_eff_bins: 0 0 0 0 0 0 0 0 0 0
mrqq: max=16 avg=0.648956

========= L2 cache stats =========
L2_cache_bank[0]: Access = 7569, Miss = 981, Miss_rate = 0.130, Pending_hits = 43, Reservation_fails = 437
L2_cache_bank[1]: Access = 7826, Miss = 1003, Miss_rate = 0.128, Pending_hits = 67, Reservation_fails = 373
L2_cache_bank[2]: Access = 7264, Miss = 1027, Miss_rate = 0.141, Pending_hits = 57, Reservation_fails = 375
L2_cache_bank[3]: Access = 7618, Miss = 949, Miss_rate = 0.125, Pending_hits = 47, Reservation_fails = 170
L2_cache_bank[4]: Access = 7254, Miss = 1042, Miss_rate = 0.144, Pending_hits = 66, Reservation_fails = 631
L2_cache_bank[5]: Access = 7866, Miss = 1017, Miss_rate = 0.129, Pending_hits = 42, Reservation_fails = 397
L2_cache_bank[6]: Access = 7908, Miss = 989, Miss_rate = 0.125, Pending_hits = 44, Reservation_fails = 314
L2_cache_bank[7]: Access = 8448, Miss = 1043, Miss_rate = 0.123, Pending_hits = 47, Reservation_fails = 191
L2_cache_bank[8]: Access = 7762, Miss = 956, Miss_rate = 0.123, Pending_hits = 42, Reservation_fails = 427
L2_cache_bank[9]: Access = 7718, Miss = 1004, Miss_rate = 0.130, Pending_hits = 63, Reservation_fails = 194
L2_cache_bank[10]: Access = 7784, Miss = 1020, Miss_rate = 0.131, Pending_hits = 46, Reservation_fails = 351
L2_cache_bank[11]: Access = 7898, Miss = 935, Miss_rate = 0.118, Pending_hits = 43, Reservation_fails = 376
L2_total_cache_accesses = 92915
L2_total_cache_misses = 11966
L2_total_cache_miss_rate = 0.1288
L2_total_cache_pending_hits = 607
L2_total_cache_reservation_fails = 4236
L2_total_cache_breakdown:
	L2_cache_stats_breakdown[GLOBAL_ACC_R][HIT] = 3962
	L2_cache_stats_breakdown[GLOBAL_ACC_R][HIT_RESERVED] = 6
	L2_cache_stats_breakdown[GLOBAL_ACC_R][MISS] = 116
	L2_cache_stats_breakdown[GLOBAL_ACC_R][RESERVATION_FAIL] = 227
	L2_cache_stats_breakdown[LOCAL_ACC_R][HIT] = 5879
	L2_cache_stats_breakdown[LOCAL_ACC_R][HIT_RESERVED] = 33
	L2_cache_stats_breakdown[LOCAL_ACC_R][MISS] = 463
	L2_cache_stats_breakdown[CONST_ACC_R][HIT] = 22
	L2_cache_stats_breakdown[CONST_ACC_R][HIT_RESERVED] = 6
	L2_cache_stats_breakdown[CONST_ACC_R][MISS] = 2
	L2_cache_stats_breakdown[CONST_ACC_R][RESERVATION_FAIL] = 459
	L2_cache_stats_breakdown[GLOBAL_ACC_W][HIT] = 5706
	L2_cache_stats_breakdown[GLOBAL_ACC_W][HIT_RESERVED] = 438
	L2_cache_stats_breakdown[GLOBAL_ACC_W][MISS] = 2048
	L2_cache_stats_breakdown[GLOBAL_ACC_W][RESERVATION_FAIL] = 121
	L2_cache_stats_breakdown[LOCAL_ACC_W][HIT] = 35088
	L2_cache_stats_breakdown[LOCAL_ACC_W][HIT_RESERVED] = 4
	L2_cache_stats_breakdown[LOCAL_ACC_W][MISS] = 8314
	L2_cache_stats_breakdown[LOCAL_ACC_W][RESERVATION_FAIL] = 148
	L2_cache_stats_breakdown[L1_WRBK_ACC][HIT] = 3178
	L2_cache_stats_breakdown[L1_WRBK_ACC][MISS] = 975
	L2_cache_stats_breakdown[INST_ACC_R][HIT] = 26507
	L2_cache_stats_breakdown[INST_ACC_R][HIT_RESERVED] = 120
	L2_cache_stats_breakdown[INST_ACC_R][MISS] = 48
	L2_cache_stats_breakdown[INST_ACC_R][RESERVATION_FAIL] = 3281
L2_cache_data_port_util = 0.126
L2_cache_fill_port_util = 0.019

icnt_total_pkts_mem_to_simt=237358
icnt_total_pkts_simt_to_mem=296387
LD_mem_lat_dist  0 0 0 0 0 0 0 0 0 0 0 0 0 0 0 0 0 0 0 0 0 0 0 0 0 0 0
ST_mem_lat_dist  0 0 0 0 0 0 0 0 0 0 0 0 0 0 0 0 0 0 0 0 0 0 0 0 0 0 0
----------------------------Interconnect-DETAILS--------------------------------
Class 0:
Packet latency average = 13.9218
	minimum = 6
	maximum = 939
Network latency average = 11.6192
	minimum = 6
	maximum = 910
Slowest packet = 4096
Flit latency average = 10.4401
	minimum = 6
	maximum = 908
Slowest flit = 13218
Fragmentation average = 0.0890041
	minimum = 0
	maximum = 828
Injected packet rate average = 0.0328937
	minimum = 0.0286956 (at node 0)
	maximum = 0.0395725 (at node 22)
Accepted packet rate average = 0.0328937
	minimum = 0.0276886 (at node 10)
	maximum = 0.0412982 (at node 22)
Injected flit rate average = 0.0966378
	minimum = 0.0842047 (at node 19)
	maximum = 0.113115 (at node 22)
Accepted flit rate average= 0.0966378
	minimum = 0.0714555 (at node 2)
	maximum = 0.125034 (at node 22)
Injected packet length average = 2.93788
Accepted packet length average = 2.93788
Total in-flight flits = 0 (0 measured)
====== Overall Traffic Statistics ======
====== Traffic class 0 ======
Packet latency average = 13.9218 (1 samples)
	minimum = 6 (1 samples)
	maximum = 939 (1 samples)
Network latency average = 11.6192 (1 samples)
	minimum = 6 (1 samples)
	maximum = 910 (1 samples)
Flit latency average = 10.4401 (1 samples)
	minimum = 6 (1 samples)
	maximum = 908 (1 samples)
Fragmentation average = 0.0890041 (1 samples)
	minimum = 0 (1 samples)
	maximum = 828 (1 samples)
Injected packet rate average = 0.0328937 (1 samples)
	minimum = 0.0286956 (1 samples)
	maximum = 0.0395725 (1 samples)
Accepted packet rate average = 0.0328937 (1 samples)
	minimum = 0.0276886 (1 samples)
	maximum = 0.0412982 (1 samples)
Injected flit rate average = 0.0966378 (1 samples)
	minimum = 0.0842047 (1 samples)
	maximum = 0.113115 (1 samples)
Accepted flit rate average = 0.0966378 (1 samples)
	minimum = 0.0714555 (1 samples)
	maximum = 0.125034 (1 samples)
Injected packet size average = 2.93788 (1 samples)
Accepted packet size average = 2.93788 (1 samples)
Hops average = 1 (1 samples)
----------------------------END-of-Interconnect-DETAILS-------------------------


gpgpu_simulation_time = 0 days, 0 hrs, 10 min, 44 sec (644 sec)
gpgpu_simulation_rate = 97333 (inst/sec)
gpgpu_simulation_rate = 317 (cycle/sec)
GPGPU-Sim: synchronize waiting for inactive GPU simulation
GPGPU-Sim API: Stream Manager State
GPGPU-Sim: detected inactive GPU simulation thread

checksum=75ef40cb5b8e
Kernel Time: 643252.812500 
