

        *** GPGPU-Sim Simulator Version 3.2.2  [build 0] ***


GPGPU-Sim PTX: simulation mode 0 (can change with PTX_SIM_MODE_FUNC environment variable:
               1=functional simulation only, 0=detailed performance simulator)
GPGPU-Sim: Configuration options:

-network_mode                           1 # Interconnection network mode
-inter_config_file   config_fermi_islip.icnt # Interconnection network config file
-gpgpu_ptx_use_cuobjdump                    1 # Use cuobjdump to extract ptx and sass from binaries
-gpgpu_experimental_lib_support                    0 # Try to extract code from cuda libraries [Broken because of unknown cudaGetExportTable]
-gpgpu_ptx_convert_to_ptxplus                    0 # Convert SASS (native ISA) to ptxplus and run ptxplus
-gpgpu_ptx_force_max_capability                   20 # Force maximum compute capability
-gpgpu_ptx_inst_debug_to_file                    0 # Dump executed instructions' debug information to file
-gpgpu_ptx_inst_debug_file       inst_debug.txt # Executed instructions' debug output file
-gpgpu_ptx_inst_debug_thread_uid                    1 # Thread UID for executed instructions' debug output
-gpgpu_simd_model                       1 # 1 = post-dominator
-gpgpu_shader_core_pipeline              1536:32 # shader core pipeline config, i.e., {<nthread>:<warpsize>}
-gpgpu_tex_cache:l1  4:128:24,L:R:m:N:L,F:128:4,128:2 # per-shader L1 texture cache  (READ-ONLY) config  {<nsets>:<bsize>:<assoc>,<rep>:<wr>:<alloc>:<wr_alloc>,<mshr>:<N>:<merge>,<mq>:<rf>}
-gpgpu_const_cache:l1 64:64:2,L:R:f:N:L,A:2:32,4 # per-shader L1 constant memory cache  (READ-ONLY) config  {<nsets>:<bsize>:<assoc>,<rep>:<wr>:<alloc>:<wr_alloc>,<mshr>:<N>:<merge>,<mq>} 
-gpgpu_cache:il1     4:128:4,L:R:f:N:L,A:2:32,4 # shader L1 instruction cache config  {<nsets>:<bsize>:<assoc>,<rep>:<wr>:<alloc>:<wr_alloc>,<mshr>:<N>:<merge>,<mq>} 
-gpgpu_cache:dl1     32:128:4,L:L:m:N:H,A:32:8,8 # per-shader L1 data cache config  {<nsets>:<bsize>:<assoc>,<rep>:<wr>:<alloc>:<wr_alloc>,<mshr>:<N>:<merge>,<mq> | none}
-gpgpu_cache:dl1PrefL1                 none # per-shader L1 data cache config  {<nsets>:<bsize>:<assoc>,<rep>:<wr>:<alloc>:<wr_alloc>,<mshr>:<N>:<merge>,<mq> | none}
-gpgpu_cache:dl1PreShared                 none # per-shader L1 data cache config  {<nsets>:<bsize>:<assoc>,<rep>:<wr>:<alloc>:<wr_alloc>,<mshr>:<N>:<merge>,<mq> | none}
-gmem_skip_L1D                          0 # global memory access skip L1D cache (implements -Xptxas -dlcm=cg, default=no skip)
-gpgpu_perfect_mem                      0 # enable perfect memory mode (no cache miss)
-n_regfile_gating_group                    4 # group of lanes that should be read/written together)
-gpgpu_clock_gated_reg_file                    0 # enable clock gated reg file for power calculations
-gpgpu_clock_gated_lanes                    0 # enable clock gated lanes for power calculations
-gpgpu_shader_registers                32768 # Number of registers per shader core. Limits number of concurrent CTAs. (default 8192)
-gpgpu_shader_cta                       8 # Maximum number of concurrent CTAs in shader (default 8)
-gpgpu_num_cta_barriers                   16 # Maximum number of named barriers per CTA (default 16)
-gpgpu_n_clusters                      15 # number of processing clusters
-gpgpu_n_cores_per_cluster                    1 # number of simd cores per cluster
-gpgpu_n_cluster_ejection_buffer_size                    8 # number of packets in ejection buffer
-gpgpu_n_ldst_response_buffer_size                    2 # number of response packets in ld/st unit ejection buffer
-gpgpu_shmem_size                   16384 # Size of shared memory per shader core (default 16kB)
-gpgpu_shmem_size                   49152 # Size of shared memory per shader core (default 16kB)
-gpgpu_shmem_size_PrefL1                16384 # Size of shared memory per shader core (default 16kB)
-gpgpu_shmem_size_PrefShared                16384 # Size of shared memory per shader core (default 16kB)
-gpgpu_shmem_num_banks                   32 # Number of banks in the shared memory in each shader core (default 16)
-gpgpu_shmem_limited_broadcast                    0 # Limit shared memory to do one broadcast per cycle (default on)
-gpgpu_shmem_warp_parts                    1 # Number of portions a warp is divided into for shared memory bank conflict check 
-gpgpu_warpdistro_shader                   -1 # Specify which shader core to collect the warp size distribution from
-gpgpu_warp_issue_shader                    0 # Specify which shader core to collect the warp issue distribution from
-gpgpu_local_mem_map                    1 # Mapping from local memory space address to simulated GPU physical address space (default = enabled)
-gpgpu_num_reg_banks                   16 # Number of register banks (default = 8)
-gpgpu_reg_bank_use_warp_id                    0 # Use warp ID in mapping registers to banks (default = off)
-gpgpu_operand_collector_num_units_sp                    6 # number of collector units (default = 4)
-gpgpu_operand_collector_num_units_sfu                    8 # number of collector units (default = 4)
-gpgpu_operand_collector_num_units_mem                    2 # number of collector units (default = 2)
-gpgpu_operand_collector_num_units_gen                    0 # number of collector units (default = 0)
-gpgpu_operand_collector_num_in_ports_sp                    2 # number of collector unit in ports (default = 1)
-gpgpu_operand_collector_num_in_ports_sfu                    1 # number of collector unit in ports (default = 1)
-gpgpu_operand_collector_num_in_ports_mem                    1 # number of collector unit in ports (default = 1)
-gpgpu_operand_collector_num_in_ports_gen                    0 # number of collector unit in ports (default = 0)
-gpgpu_operand_collector_num_out_ports_sp                    2 # number of collector unit in ports (default = 1)
-gpgpu_operand_collector_num_out_ports_sfu                    1 # number of collector unit in ports (default = 1)
-gpgpu_operand_collector_num_out_ports_mem                    1 # number of collector unit in ports (default = 1)
-gpgpu_operand_collector_num_out_ports_gen                    0 # number of collector unit in ports (default = 0)
-gpgpu_coalesce_arch                   13 # Coalescing arch (default = 13, anything else is off for now)
-gpgpu_num_sched_per_core                    1 # Number of warp schedulers per core
-gpgpu_max_insn_issue_per_warp                    1 # Max number of instructions that can be issued per warp in one cycle by scheduler
-gpgpu_simt_core_sim_order                    1 # Select the simulation order of cores in a cluster (0=Fix, 1=Round-Robin)
-gpgpu_pipeline_widths        2,1,1,2,1,1,2 # Pipeline widths ID_OC_SP,ID_OC_SFU,ID_OC_MEM,OC_EX_SP,OC_EX_SFU,OC_EX_MEM,EX_WB
-gpgpu_num_sp_units                     2 # Number of SP units (default=1)
-gpgpu_num_sfu_units                    1 # Number of SF units (default=1)
-gpgpu_num_mem_units                    1 # Number if ldst units (default=1) WARNING: not hooked up to anything
-gpgpu_scheduler                      gto # Scheduler configuration: < lrr | gto | two_level_active > If two_level_active:<num_active_warps>:<inner_prioritization>:<outer_prioritization>For complete list of prioritization values see shader.h enum scheduler_prioritization_typeDefault: gto
-gpgpu_dram_scheduler                    1 # 0 = fifo, 1 = FR-FCFS (defaul)
-gpgpu_dram_partition_queues              8:8:8:8 # i2$:$2d:d2$:$2i
-l2_ideal                               0 # Use a ideal L2 cache that always hit
-gpgpu_cache:dl2     64:128:8,L:B:m:W:L,A:32:4,4:0,32 # unified banked L2 data cache config  {<nsets>:<bsize>:<assoc>,<rep>:<wr>:<alloc>:<wr_alloc>,<mshr>:<N>:<merge>,<mq>}
-gpgpu_cache:dl2_texture_only                    0 # L2 cache used for texture only
-gpgpu_n_mem                            6 # number of memory modules (e.g. memory controllers) in gpu
-gpgpu_n_sub_partition_per_mchannel                    2 # number of memory subpartition in each memory module
-gpgpu_n_mem_per_ctrlr                    2 # number of memory chips per memory controller
-gpgpu_memlatency_stat                   14 # track and display latency statistics 0x2 enables MC, 0x4 enables queue logs
-gpgpu_frfcfs_dram_sched_queue_size                   16 # 0 = unlimited (default); # entries per chip
-gpgpu_dram_return_queue_size                  116 # 0 = unlimited (default); # entries per chip
-gpgpu_dram_buswidth                    4 # default = 4 bytes (8 bytes per cycle at DDR)
-gpgpu_dram_burst_length                    8 # Burst length of each DRAM request (default = 4 data bus cycle)
-dram_data_command_freq_ratio                    4 # Frequency ratio between DRAM data bus and command bus (default = 2 times, i.e. DDR)
-gpgpu_dram_timing_opt nbk=16:CCD=2:RRD=6:RCD=12:RAS=28:RP=12:RC=40: CL=12:WL=4:CDLR=5:WR=12:nbkgrp=4:CCDL=3:RTPL=2 # DRAM timing parameters = {nbk:tCCD:tRRD:tRCD:tRAS:tRP:tRC:CL:WL:tCDLR:tWR:nbkgrp:tCCDL:tRTPL}
-rop_latency                          120 # ROP queue latency (default 85)
-dram_latency                         100 # DRAM latency (default 30)
-gpgpu_mem_addr_mapping dramid@8;00000000.00000000.00000000.00000000.0000RRRR.RRRRRRRR.BBBCCCCB.CCSSSSSS # mapping memory address to dram model {dramid@<start bit>;<memory address map>}
-gpgpu_mem_addr_test                    0 # run sweep test to check address mapping for aliased address
-gpgpu_mem_address_mask                    1 # 0 = old addressing mask, 1 = new addressing mask, 2 = new add. mask + flipped bank sel and chip sel bits
-gpuwattch_xml_file  gpuwattch_gtx480.xml # GPUWattch XML file
-power_simulation_enabled                    1 # Turn on power simulator (1=On, 0=Off)
-power_per_cycle_dump                    0 # Dump detailed power output each cycle
-power_trace_enabled                    0 # produce a file for the power trace (1=On, 0=Off)
-power_trace_zlevel                     6 # Compression level of the power trace output log (0=no comp, 9=highest)
-steady_power_levels_enabled                    0 # produce a file for the steady power levels (1=On, 0=Off)
-steady_state_definition                  8:4 # allowed deviation:number of samples
-gpgpu_max_cycle                        0 # terminates gpu simulation early (0 = no limit)
-gpgpu_max_insn                         0 # terminates gpu simulation early (0 = no limit)
-gpgpu_max_cta                          0 # terminates gpu simulation early (0 = no limit)
-gpgpu_runtime_stat                   500 # display runtime statistics such as dram utilization {<freq>:<flag>}
-liveness_message_freq                    1 # Minimum number of seconds between simulation liveness messages (0 = always print)
-gpgpu_flush_l1_cache                    0 # Flush L1 cache at the end of each kernel call
-gpgpu_flush_l2_cache                    0 # Flush L2 cache at the end of each kernel call
-gpgpu_deadlock_detect                    1 # Stop the simulation at deadlock (1=on (default), 0=off)
-gpgpu_ptx_instruction_classification                    0 # if enabled will classify ptx instruction types per kernel (Max 255 kernels now)
-gpgpu_ptx_sim_mode                     0 # Select between Performance (default) or Functional simulation (1)
-gpgpu_clock_domains 700.0:700.0:700.0:924.0 # Clock Domain Frequencies in MhZ {<Core Clock>:<ICNT Clock>:<L2 Clock>:<DRAM Clock>}
-gpgpu_max_concurrent_kernel                    8 # maximum kernels that can run concurrently on GPU
-gpgpu_cflog_interval                    0 # Interval between each snapshot in control flow logger
-visualizer_enabled                     0 # Turn on visualizer output (1=On, 0=Off)
-visualizer_outputfile                 NULL # Specifies the output log file for visualizer
-visualizer_zlevel                      6 # Compression level of the visualizer output log (0=no comp, 9=highest)
-trace_enabled                          0 # Turn on traces
-trace_components                    none # comma seperated list of traces to enable. Complete list found in trace_streams.tup. Default none
-trace_sampling_core                    0 # The core which is printed using CORE_DPRINTF. Default 0
-trace_sampling_memory_partition                   -1 # The memory partition which is printed using MEMPART_DPRINTF. Default -1 (i.e. all)
-enable_ptx_file_line_stats                    1 # Turn on PTX source line statistic profiling. (1 = On)
-ptx_line_stats_filename gpgpu_inst_stats.txt # Output file for PTX source line statistics.
-save_embedded_ptx                      0 # saves ptx files embedded in binary as <n>.ptx
-keep                                   0 # keep intermediate files created by GPGPU-Sim when interfacing with external programs
-gpgpu_ptx_save_converted_ptxplus                    0 # Saved converted ptxplus to a file
-ptx_opcode_latency_int         4,13,4,5,145 # Opcode latencies for integers <ADD,MAX,MUL,MAD,DIV>Default 1,1,19,25,145
-ptx_opcode_latency_fp          4,13,4,5,39 # Opcode latencies for single precision floating points <ADD,MAX,MUL,MAD,DIV>Default 1,1,1,1,30
-ptx_opcode_latency_dp         8,19,8,8,330 # Opcode latencies for double precision floating points <ADD,MAX,MUL,MAD,DIV>Default 8,8,8,8,335
-ptx_opcode_initiation_int            1,2,2,1,8 # Opcode initiation intervals for integers <ADD,MAX,MUL,MAD,DIV>Default 1,1,4,4,32
-ptx_opcode_initiation_fp            1,2,1,1,4 # Opcode initiation intervals for single precision floating points <ADD,MAX,MUL,MAD,DIV>Default 1,1,1,1,5
-ptx_opcode_initiation_dp         8,16,8,8,130 # Opcode initiation intervals for double precision floating points <ADD,MAX,MUL,MAD,DIV>Default 8,8,8,8,130
DRAM Timing Options:
nbk                                    16 # number of banks
CCD                                     2 # column to column delay
RRD                                     6 # minimal delay between activation of rows in different banks
RCD                                    12 # row to column delay
RAS                                    28 # time needed to activate row
RP                                     12 # time needed to precharge (deactivate) row
RC                                     40 # row cycle time
CDLR                                    5 # switching from write to read (changes tWTR)
WR                                     12 # last data-in to row precharge
CL                                     12 # CAS latency
WL                                      4 # Write latency
nbkgrp                                  4 # number of bank groups
CCDL                                    3 # column to column delay between accesses to different bank groups
RTPL                                    2 # read to precharge delay between accesses to different bank groups
Total number of memory sub partition = 12
addr_dec_mask[CHIP]  = 0000000000000000 	high:64 low:0
addr_dec_mask[BK]    = 000000000000e100 	high:16 low:8
addr_dec_mask[ROW]   = 000000000fff0000 	high:28 low:16
addr_dec_mask[COL]   = 0000000000001eff 	high:13 low:0
addr_dec_mask[BURST] = 000000000000003f 	high:6 low:0
sub_partition_id_mask = 0000000000000100
GPGPU-Sim uArch: clock freqs: 700000000.000000:700000000.000000:700000000.000000:924000000.000000
GPGPU-Sim uArch: clock periods: 0.00000000142857142857:0.00000000142857142857:0.00000000142857142857:0.00000000108225108225
*** Initializing Memory Statistics ***
GPGPU-Sim uArch: interconnect node map (shaderID+MemID to icntID)
GPGPU-Sim uArch: Memory nodes ID start from index: 15
GPGPU-Sim uArch:    0   1   2   3   4
GPGPU-Sim uArch:    5   6   7   8   9
GPGPU-Sim uArch:   10  11  12  13  14
GPGPU-Sim uArch:   15  16  17  18  19
GPGPU-Sim uArch:   20  21  22  23  24
GPGPU-Sim uArch:   25  26
GPGPU-Sim uArch: interconnect node reverse map (icntID to shaderID+MemID)
GPGPU-Sim uArch: Memory nodes start from ID: 15
GPGPU-Sim uArch:    0   1   2   3   4
GPGPU-Sim uArch:    5   6   7   8   9
GPGPU-Sim uArch:   10  11  12  13  14
GPGPU-Sim uArch:   15  16  17  18  19
GPGPU-Sim uArch:   20  21  22  23  24
GPGPU-Sim uArch:   25  26
62f7c84b053e7125f7dedfb6f8cd2ad7  /home/kishore/project_source/gpu_class_proj/gpgpusim-benchmarks-master/bin/release/RAY
GPGPU-Sim uArch: performance model initialization complete.
GPGPU-Sim PTX: __cudaRegisterFatBinary, fat_cubin_handle = 1, filename=rayTracing.cu
self exe links to: /home/kishore/project_source/gpu_class_proj/gpgpusim-benchmarks-master/bin/release/RAY
Running md5sum using "md5sum /home/kishore/project_source/gpu_class_proj/gpgpusim-benchmarks-master/bin/release/RAY "
Running cuobjdump using "$CUDA_INSTALL_PATH/bin/cuobjdump -ptx -elf -sass /home/kishore/project_source/gpu_class_proj/gpgpusim-benchmarks-master/bin/release/RAY > _cuobjdump_complete_output_0RKhB9"
Parsing file _cuobjdump_complete_output_0RKhB9
######### cuobjdump parser ########
## Adding new section PTX
Adding ptx filename: _cuobjdump_1.ptx
Adding arch: sm_10
Adding identifier: rayTracing.cu
## Adding new section ELF
Adding arch: sm_10
Adding identifier: rayTracing.cu
## Adding new section ELF
Adding arch: sm_20
Adding identifier: rayTracing.cu
## Adding new section PTX
Adding ptx filename: _cuobjdump_2.ptx
Adding arch: sm_20
Adding identifier: rayTracing.cu
Done parsing!!!
GPGPU-Sim PTX: __cudaRegisterFunction _Z6renderPjP4Nodejjff : hostFun 0x0x40a280, fat_cubin_handle = 1
GPGPU-Sim PTX: allocating stack frame region for .param "__cudaretf__Zmi6float3S_" from 0x0 to 0xc
GPGPU-Sim PTX: allocating stack frame region for .param "__cudaparmf1__Zmi6float3S_" from 0xc to 0x18
GPGPU-Sim PTX: allocating stack frame region for .param "__cudaparmf2__Zmi6float3S_" from 0x18 to 0x24
GPGPU-Sim PTX: allocating stack frame region for .param "__cudaretf__Z9normalize6float3" from 0x0 to 0xc
GPGPU-Sim PTX: allocating stack frame region for .param "__cudaparmf1__Z9normalize6float3" from 0xc to 0x18
GPGPU-Sim PTX: allocating stack frame region for .param "__cudaretf__Z18intersectionSphere5Rayon6float3f" from 0x0 to 0x4
GPGPU-Sim PTX: allocating stack frame region for .param "__cudaparmf1__Z18intersectionSphere5Rayon6float3f" from 0x4 to 0x1c
GPGPU-Sim PTX: allocating stack frame region for .param "__cudaparmf2__Z18intersectionSphere5Rayon6float3f" from 0x1c to 0x28
GPGPU-Sim PTX: allocating stack frame region for .param "__cudaparmf3__Z18intersectionSphere5Rayon6float3f" from 0x28 to 0x2c
GPGPU-Sim PTX: allocating stack frame region for .param "__cudaretf__Z16intersectionPlan5Rayon6float3S0_" from 0x0 to 0x4
GPGPU-Sim PTX: allocating stack frame region for .param "__cudaparmf1__Z16intersectionPlan5Rayon6float3S0_" from 0x4 to 0x1c
GPGPU-Sim PTX: allocating stack frame region for .param "__cudaparmf2__Z16intersectionPlan5Rayon6float3S0_" from 0x1c to 0x28
GPGPU-Sim PTX: allocating stack frame region for .param "__cudaparmf3__Z16intersectionPlan5Rayon6float3S0_" from 0x28 to 0x34
GPGPU-Sim PTX: allocating stack frame region for .param "__cudaretf__Z10getNormale6float3S_" from 0x0 to 0xc
GPGPU-Sim PTX: allocating stack frame region for .param "__cudaparmf1__Z10getNormale6float3S_" from 0xc to 0x18
GPGPU-Sim PTX: allocating stack frame region for .param "__cudaparmf2__Z10getNormale6float3S_" from 0x18 to 0x24
GPGPU-Sim PTX: allocating stack frame region for .param "__cudaretf__Z11getNormaleP6float3" from 0x0 to 0xc
GPGPU-Sim PTX: allocating stack frame region for .param "__cudaparmf1__Z11getNormaleP6float3" from 0xc to 0x18
GPGPU-Sim PTX: allocating stack frame region for .param "__cudaretf__Z14rgbaFloatToInt6float4" from 0x0 to 0x4
GPGPU-Sim PTX: allocating stack frame region for .param "__cudaparmf1__Z14rgbaFloatToInt6float4" from 0x4 to 0x14
GPGPU-Sim PTX: allocating stack frame region for .param "__cudaretf__Z12notShadowRayP4Node6float3S1_f" from 0x0 to 0x4
GPGPU-Sim PTX: allocating stack frame region for .param "__cudaparmf1__Z12notShadowRayP4Node6float3S1_f" from 0x4 to 0xc
GPGPU-Sim PTX: allocating stack frame region for .param "__cudaparmf2__Z12notShadowRayP4Node6float3S1_f" from 0xc to 0x18
GPGPU-Sim PTX: allocating stack frame region for .param "__cudaparmf3__Z12notShadowRayP4Node6float3S1_f" from 0x18 to 0x24
GPGPU-Sim PTX: allocating stack frame region for .param "__cudaparmf4__Z12notShadowRayP4Node6float3S1_f" from 0x24 to 0x28
GPGPU-Sim PTX: allocating stack frame region for .param "__cudaretf__Z15float2int_pow20f" from 0x0 to 0x4
GPGPU-Sim PTX: allocating stack frame region for .param "__cudaparmf1__Z15float2int_pow20f" from 0x4 to 0x8
GPGPU-Sim PTX: allocating stack frame region for .param "__cudaretf__Z15float2int_pow50f" from 0x0 to 0x4
GPGPU-Sim PTX: allocating stack frame region for .param "__cudaparmf1__Z15float2int_pow50f" from 0x4 to 0x8
GPGPU-Sim PTX: allocating stack frame region for .param "__cudaparmf1__ZN4dim3C1Ejjj" from 0x0 to 0x8
GPGPU-Sim PTX: allocating stack frame region for .param "__cudaparmf2__ZN4dim3C1Ejjj" from 0x8 to 0xc
GPGPU-Sim PTX: allocating stack frame region for .param "__cudaparmf3__ZN4dim3C1Ejjj" from 0xc to 0x10
GPGPU-Sim PTX: allocating stack frame region for .param "__cudaparmf4__ZN4dim3C1Ejjj" from 0x10 to 0x14
GPGPU-Sim PTX: instruction assembly for function '_Zmi6float3S_'...   done.
GPGPU-Sim PTX: finding reconvergence points for '_Zmi6float3S_'...
GPGPU-Sim PTX: Finding dominators for '_Zmi6float3S_'...
GPGPU-Sim PTX: Finding immediate dominators for '_Zmi6float3S_'...
GPGPU-Sim PTX: Finding postdominators for '_Zmi6float3S_'...
GPGPU-Sim PTX: Finding immediate postdominators for '_Zmi6float3S_'...
GPGPU-Sim PTX: pre-decoding instructions for '_Zmi6float3S_'...
GPGPU-Sim PTX: reconvergence points for _Zmi6float3S_...
GPGPU-Sim PTX: ... end of reconvergence points for _Zmi6float3S_
GPGPU-Sim PTX: ... done pre-decoding instructions for '_Zmi6float3S_'.
GPGPU-Sim PTX: instruction assembly for function '_Z9normalize6float3'...   done.
GPGPU-Sim PTX: finding reconvergence points for '_Z9normalize6float3'...
GPGPU-Sim PTX: Finding dominators for '_Z9normalize6float3'...
GPGPU-Sim PTX: Finding immediate dominators for '_Z9normalize6float3'...
GPGPU-Sim PTX: Finding postdominators for '_Z9normalize6float3'...
GPGPU-Sim PTX: Finding immediate postdominators for '_Z9normalize6float3'...
GPGPU-Sim PTX: pre-decoding instructions for '_Z9normalize6float3'...
GPGPU-Sim PTX: reconvergence points for _Z9normalize6float3...
GPGPU-Sim PTX: ... end of reconvergence points for _Z9normalize6float3
GPGPU-Sim PTX: ... done pre-decoding instructions for '_Z9normalize6float3'.
GPGPU-Sim PTX: instruction assembly for function '_Z18intersectionSphere5Rayon6float3f'...   done.
GPGPU-Sim PTX: finding reconvergence points for '_Z18intersectionSphere5Rayon6float3f'...
GPGPU-Sim PTX: Finding dominators for '_Z18intersectionSphere5Rayon6float3f'...
GPGPU-Sim PTX: Finding immediate dominators for '_Z18intersectionSphere5Rayon6float3f'...
GPGPU-Sim PTX: Finding postdominators for '_Z18intersectionSphere5Rayon6float3f'...
GPGPU-Sim PTX: Finding immediate postdominators for '_Z18intersectionSphere5Rayon6float3f'...
GPGPU-Sim PTX: pre-decoding instructions for '_Z18intersectionSphere5Rayon6float3f'...
GPGPU-Sim PTX: reconvergence points for _Z18intersectionSphere5Rayon6float3f...
GPGPU-Sim PTX:  1 (potential) branch divergence @  PC=0x250 (_1.ptx:173) @%p2 bra $Lt_2_3074;
GPGPU-Sim PTX:    immediate post dominator      @  PC=0x2c0 (_1.ptx:193) mov.f32 %f39, %f32;
GPGPU-Sim PTX:  2 (potential) branch divergence @  PC=0x260 (_1.ptx:175) bra.uni $Lt_2_2818;
GPGPU-Sim PTX:    immediate post dominator      @  PC=0x2c0 (_1.ptx:193) mov.f32 %f39, %f32;
GPGPU-Sim PTX:  3 (potential) branch divergence @  PC=0x280 (_1.ptx:180) @!%p3 bra $Lt_2_3586;
GPGPU-Sim PTX:    immediate post dominator      @  PC=0x2c0 (_1.ptx:193) mov.f32 %f39, %f32;
GPGPU-Sim PTX:  4 (potential) branch divergence @  PC=0x290 (_1.ptx:182) bra.uni $Lt_2_3330;
GPGPU-Sim PTX:    immediate post dominator      @  PC=0x2c0 (_1.ptx:193) mov.f32 %f39, %f32;
GPGPU-Sim PTX: ... end of reconvergence points for _Z18intersectionSphere5Rayon6float3f
GPGPU-Sim PTX: ... done pre-decoding instructions for '_Z18intersectionSphere5Rayon6float3f'.
GPGPU-Sim PTX: instruction assembly for function '_Z16intersectionPlan5Rayon6float3S0_'...   done.
GPGPU-Sim PTX: finding reconvergence points for '_Z16intersectionPlan5Rayon6float3S0_'...
GPGPU-Sim PTX: Finding dominators for '_Z16intersectionPlan5Rayon6float3S0_'...
GPGPU-Sim PTX: Finding immediate dominators for '_Z16intersectionPlan5Rayon6float3S0_'...
GPGPU-Sim PTX: Finding postdominators for '_Z16intersectionPlan5Rayon6float3S0_'...
GPGPU-Sim PTX: Finding immediate postdominators for '_Z16intersectionPlan5Rayon6float3S0_'...
GPGPU-Sim PTX: pre-decoding instructions for '_Z16intersectionPlan5Rayon6float3S0_'...
GPGPU-Sim PTX: reconvergence points for _Z16intersectionPlan5Rayon6float3S0_...
GPGPU-Sim PTX:  1 (potential) branch divergence @  PC=0x320 (_1.ptx:214) @!%p1 bra $Lt_3_2050;
GPGPU-Sim PTX:    immediate post dominator      @  PC=0x368 (_1.ptx:227) mov.f32 %f14, %f9;
GPGPU-Sim PTX:  2 (potential) branch divergence @  PC=0x330 (_1.ptx:216) bra.uni $Lt_3_1794;
GPGPU-Sim PTX:    immediate post dominator      @  PC=0x368 (_1.ptx:227) mov.f32 %f14, %f9;
GPGPU-Sim PTX: ... end of reconvergence points for _Z16intersectionPlan5Rayon6float3S0_
GPGPU-Sim PTX: ... done pre-decoding instructions for '_Z16intersectionPlan5Rayon6float3S0_'.
GPGPU-Sim PTX: instruction assembly for function '_Z10getNormale6float3S_'...   done.
GPGPU-Sim PTX: finding reconvergence points for '_Z10getNormale6float3S_'...
GPGPU-Sim PTX: Finding dominators for '_Z10getNormale6float3S_'...
GPGPU-Sim PTX: Finding immediate dominators for '_Z10getNormale6float3S_'...
GPGPU-Sim PTX: Finding postdominators for '_Z10getNormale6float3S_'...
GPGPU-Sim PTX: Finding immediate postdominators for '_Z10getNormale6float3S_'...
GPGPU-Sim PTX: pre-decoding instructions for '_Z10getNormale6float3S_'...
GPGPU-Sim PTX: reconvergence points for _Z10getNormale6float3S_...
GPGPU-Sim PTX: ... end of reconvergence points for _Z10getNormale6float3S_
GPGPU-Sim PTX: ... done pre-decoding instructions for '_Z10getNormale6float3S_'.
GPGPU-Sim PTX: instruction assembly for function '_Z11getNormaleP6float3'...   done.
GPGPU-Sim PTX: finding reconvergence points for '_Z11getNormaleP6float3'...
GPGPU-Sim PTX: Finding dominators for '_Z11getNormaleP6float3'...
GPGPU-Sim PTX: Finding immediate dominators for '_Z11getNormaleP6float3'...
GPGPU-Sim PTX: Finding postdominators for '_Z11getNormaleP6float3'...
GPGPU-Sim PTX: Finding immediate postdominators for '_Z11getNormaleP6float3'...
GPGPU-Sim PTX: pre-decoding instructions for '_Z11getNormaleP6float3'...
GPGPU-Sim PTX: reconvergence points for _Z11getNormaleP6float3...
GPGPU-Sim PTX: ... end of reconvergence points for _Z11getNormaleP6float3
GPGPU-Sim PTX: ... done pre-decoding instructions for '_Z11getNormaleP6float3'.
GPGPU-Sim PTX: instruction assembly for function '_Z14rgbaFloatToInt6float4'...   done.
GPGPU-Sim PTX: finding reconvergence points for '_Z14rgbaFloatToInt6float4'...
GPGPU-Sim PTX: Finding dominators for '_Z14rgbaFloatToInt6float4'...
GPGPU-Sim PTX: Finding immediate dominators for '_Z14rgbaFloatToInt6float4'...
GPGPU-Sim PTX: Finding postdominators for '_Z14rgbaFloatToInt6float4'...
GPGPU-Sim PTX: Finding immediate postdominators for '_Z14rgbaFloatToInt6float4'...
GPGPU-Sim PTX: pre-decoding instructions for '_Z14rgbaFloatToInt6float4'...
GPGPU-Sim PTX: reconvergence points for _Z14rgbaFloatToInt6float4...
GPGPU-Sim PTX: ... end of reconvergence points for _Z14rgbaFloatToInt6float4
GPGPU-Sim PTX: ... done pre-decoding instructions for '_Z14rgbaFloatToInt6float4'.
GPGPU-Sim PTX: allocating global region for "cnode" from 0x100 to 0x1a0 (global memory space)
GPGPU-Sim PTX: instruction assembly for function '_Z12notShadowRayP4Node6float3S1_f'...   done.
GPGPU-Sim PTX: finding reconvergence points for '_Z12notShadowRayP4Node6float3S1_f'...
GPGPU-Sim PTX: Finding dominators for '_Z12notShadowRayP4Node6float3S1_f'...
GPGPU-Sim PTX: Finding immediate dominators for '_Z12notShadowRayP4Node6float3S1_f'...
GPGPU-Sim PTX: Finding postdominators for '_Z12notShadowRayP4Node6float3S1_f'...
GPGPU-Sim PTX: Finding immediate postdominators for '_Z12notShadowRayP4Node6float3S1_f'...
GPGPU-Sim PTX: pre-decoding instructions for '_Z12notShadowRayP4Node6float3S1_f'...
GPGPU-Sim PTX: reconvergence points for _Z12notShadowRayP4Node6float3S1_f...
GPGPU-Sim PTX:  1 (potential) branch divergence @  PC=0x638 (_1.ptx:364) @%p1 bra $Lt_7_8450;
GPGPU-Sim PTX:    immediate post dominator      @  PC=0x828 (_1.ptx:441) mov.f32 %f58, 0f00000000;    // 0
GPGPU-Sim PTX:  2 (potential) branch divergence @  PC=0x658 (_1.ptx:369) @!%p2 bra $Lt_7_8962;
GPGPU-Sim PTX:    immediate post dominator      @  PC=0x6b8 (_1.ptx:385) mov.f32 %f28, %f20;
GPGPU-Sim PTX:  3 (potential) branch divergence @  PC=0x668 (_1.ptx:371) bra.uni $Lt_7_8706;
GPGPU-Sim PTX:    immediate post dominator      @  PC=0x6b8 (_1.ptx:385) mov.f32 %f28, %f20;
GPGPU-Sim PTX:  4 (potential) branch divergence @  PC=0x6c0 (_1.ptx:386) bra.uni $Lt_7_8194;
GPGPU-Sim PTX:    immediate post dominator      @  PC=0x828 (_1.ptx:441) mov.f32 %f58, 0f00000000;    // 0
GPGPU-Sim PTX:  5 (potential) branch divergence @  PC=0x7b0 (_1.ptx:418) @%p5 bra $Lt_7_9474;
GPGPU-Sim PTX:    immediate post dominator      @  PC=0x820 (_1.ptx:438) mov.f32 %f28, %f51;
GPGPU-Sim PTX:  6 (potential) branch divergence @  PC=0x7c0 (_1.ptx:420) bra.uni $Lt_7_9730;
GPGPU-Sim PTX:    immediate post dominator      @  PC=0x820 (_1.ptx:438) mov.f32 %f28, %f51;
GPGPU-Sim PTX:  7 (potential) branch divergence @  PC=0x7e0 (_1.ptx:425) @!%p6 bra $Lt_7_9986;
GPGPU-Sim PTX:    immediate post dominator      @  PC=0x820 (_1.ptx:438) mov.f32 %f28, %f51;
GPGPU-Sim PTX:  8 (potential) branch divergence @  PC=0x7f0 (_1.ptx:427) bra.uni $Lt_7_9730;
GPGPU-Sim PTX:    immediate post dominator      @  PC=0x820 (_1.ptx:438) mov.f32 %f28, %f51;
GPGPU-Sim PTX:  9 (potential) branch divergence @  PC=0x838 (_1.ptx:443) @!%p7 bra $Lt_7_10242;
GPGPU-Sim PTX:    immediate post dominator      @  PC=0x8e8 (_1.ptx:468) add.s32 %r1, %r1, 1;
GPGPU-Sim PTX: 10 (potential) branch divergence @  PC=0x8d8 (_1.ptx:463) @!%p8 bra $Lt_7_10242;
GPGPU-Sim PTX:    immediate post dominator      @  PC=0x8e8 (_1.ptx:468) add.s32 %r1, %r1, 1;
GPGPU-Sim PTX: 11 (potential) branch divergence @  PC=0x908 (_1.ptx:472) @%p9 bra $Lt_7_10754;
GPGPU-Sim PTX:    immediate post dominator      @  PC=0x960 (_1.ptx:486) selp.s32 %r10, 1, 0, %p11;
GPGPU-Sim PTX: 12 (potential) branch divergence @  PC=0x930 (_1.ptx:477) @%p10 bra $L_7_7170;
GPGPU-Sim PTX:    immediate post dominator      @  PC=0x960 (_1.ptx:486) selp.s32 %r10, 1, 0, %p11;
GPGPU-Sim PTX: 13 (potential) branch divergence @  PC=0x938 (_1.ptx:478) bra.uni $L_7_7938;
GPGPU-Sim PTX:    immediate post dominator      @  PC=0x960 (_1.ptx:486) selp.s32 %r10, 1, 0, %p11;
GPGPU-Sim PTX: ... end of reconvergence points for _Z12notShadowRayP4Node6float3S1_f
GPGPU-Sim PTX: ... done pre-decoding instructions for '_Z12notShadowRayP4Node6float3S1_f'.
GPGPU-Sim PTX: instruction assembly for function '_Z15float2int_pow20f'...   done.
GPGPU-Sim PTX: finding reconvergence points for '_Z15float2int_pow20f'...
GPGPU-Sim PTX: Finding dominators for '_Z15float2int_pow20f'...
GPGPU-Sim PTX: Finding immediate dominators for '_Z15float2int_pow20f'...
GPGPU-Sim PTX: Finding postdominators for '_Z15float2int_pow20f'...
GPGPU-Sim PTX: Finding immediate postdominators for '_Z15float2int_pow20f'...
GPGPU-Sim PTX: pre-decoding instructions for '_Z15float2int_pow20f'...
GPGPU-Sim PTX: reconvergence points for _Z15float2int_pow20f...
GPGPU-Sim PTX: ... end of reconvergence points for _Z15float2int_pow20f
GPGPU-Sim PTX: ... done pre-decoding instructions for '_Z15float2int_pow20f'.
GPGPU-Sim PTX: instruction assembly for function '_Z15float2int_pow50f'...   done.
GPGPU-Sim PTX: finding reconvergence points for '_Z15float2int_pow50f'...
GPGPU-Sim PTX: Finding dominators for '_Z15float2int_pow50f'...
GPGPU-Sim PTX: Finding immediate dominators for '_Z15float2int_pow50f'...
GPGPU-Sim PTX: Finding postdominators for '_Z15float2int_pow50f'...
GPGPU-Sim PTX: Finding immediate postdominators for '_Z15float2int_pow50f'...
GPGPU-Sim PTX: pre-decoding instructions for '_Z15float2int_pow50f'...
GPGPU-Sim PTX: reconvergence points for _Z15float2int_pow50f...
GPGPU-Sim PTX: ... end of reconvergence points for _Z15float2int_pow50f
GPGPU-Sim PTX: ... done pre-decoding instructions for '_Z15float2int_pow50f'.
GPGPU-Sim PTX: allocating constant region for "MView" from 0x200 to 0x230 (global memory space) 1
GPGPU-Sim PTX: allocating stack frame region for .local "__cuda___cuda_local_var_36873_9_non_const_pile_32240" from 0x0 to 0x50
GPGPU-Sim PTX: instruction assembly for function '_Z6renderPjP4Nodejjff'...   done.
GPGPU-Sim PTX: finding reconvergence points for '_Z6renderPjP4Nodejjff'...
GPGPU-Sim PTX: Finding dominators for '_Z6renderPjP4Nodejjff'...
GPGPU-Sim PTX: Finding immediate dominators for '_Z6renderPjP4Nodejjff'...
GPGPU-Sim PTX: Finding postdominators for '_Z6renderPjP4Nodejjff'...
GPGPU-Sim PTX: Finding immediate postdominators for '_Z6renderPjP4Nodejjff'...
GPGPU-Sim PTX: pre-decoding instructions for '_Z6renderPjP4Nodejjff'...
GPGPU-Sim PTX: reconvergence points for _Z6renderPjP4Nodejjff...
GPGPU-Sim PTX:  1 (potential) branch divergence @  PC=0xdb0 (_1.ptx:663) @%p1 bra $Lt_10_44034;
GPGPU-Sim PTX:    immediate post dominator      @  PC=0x2370 (_1.ptx:1495) exit;
GPGPU-Sim PTX:  2 (potential) branch divergence @  PC=0x1028 (_1.ptx:751) @%p2 bra $Lt_10_45570;
GPGPU-Sim PTX:    immediate post dominator      @  PC=0x11b8 (_1.ptx:815) mov.f32 %f108, 0f00000000;   // 0
GPGPU-Sim PTX:  3 (potential) branch divergence @  PC=0x1048 (_1.ptx:756) @!%p3 bra $Lt_10_46082;
GPGPU-Sim PTX:    immediate post dominator      @  PC=0x1090 (_1.ptx:769) mov.f32 %f87, %f82;
GPGPU-Sim PTX:  4 (potential) branch divergence @  PC=0x1058 (_1.ptx:758) bra.uni $Lt_10_45826;
GPGPU-Sim PTX:    immediate post dominator      @  PC=0x1090 (_1.ptx:769) mov.f32 %f87, %f82;
GPGPU-Sim PTX:  5 (potential) branch divergence @  PC=0x1098 (_1.ptx:770) bra.uni $Lt_10_45314;
GPGPU-Sim PTX:    immediate post dominator      @  PC=0x11b8 (_1.ptx:815) mov.f32 %f108, 0f00000000;   // 0
GPGPU-Sim PTX:  6 (potential) branch divergence @  PC=0x1140 (_1.ptx:793) @%p6 bra $Lt_10_46594;
GPGPU-Sim PTX:    immediate post dominator      @  PC=0x11b0 (_1.ptx:813) mov.f32 %f87, %f101;
GPGPU-Sim PTX:  7 (potential) branch divergence @  PC=0x1150 (_1.ptx:795) bra.uni $Lt_10_46850;
GPGPU-Sim PTX:    immediate post dominator      @  PC=0x11b0 (_1.ptx:813) mov.f32 %f87, %f101;
GPGPU-Sim PTX:  8 (potential) branch divergence @  PC=0x1170 (_1.ptx:800) @!%p7 bra $Lt_10_47106;
GPGPU-Sim PTX:    immediate post dominator      @  PC=0x11b0 (_1.ptx:813) mov.f32 %f87, %f101;
GPGPU-Sim PTX:  9 (potential) branch divergence @  PC=0x1180 (_1.ptx:802) bra.uni $Lt_10_46850;
GPGPU-Sim PTX:    immediate post dominator      @  PC=0x11b0 (_1.ptx:813) mov.f32 %f87, %f101;
GPGPU-Sim PTX: 10 (potential) branch divergence @  PC=0x11f8 (_1.ptx:823) @%p8 bra $Lt_10_47362;
GPGPU-Sim PTX:    immediate post dominator      @  PC=0x1210 (_1.ptx:829) add.s32 %r25, %r25, 1;
GPGPU-Sim PTX: 11 (potential) branch divergence @  PC=0x1230 (_1.ptx:833) @%p9 bra $Lt_10_45058;
GPGPU-Sim PTX:    immediate post dominator      @  PC=0x1238 (_1.ptx:834) mov.f32 %f109, 0f00000000;   // 0
GPGPU-Sim PTX: 12 (potential) branch divergence @  PC=0x1280 (_1.ptx:843) @%p10 bra $Lt_10_48130;
GPGPU-Sim PTX:    immediate post dominator      @  PC=0x2140 (_1.ptx:1416) add.s32 %r23, %r23, 1;
GPGPU-Sim PTX: 13 (potential) branch divergence @  PC=0x1330 (_1.ptx:868) @%p11 bra $Lt_10_48898;
GPGPU-Sim PTX:    immediate post dominator      @  PC=0x13b8 (_1.ptx:888) sub.f32 %f136, %f21, %f119;
GPGPU-Sim PTX: 14 (potential) branch divergence @  PC=0x1350 (_1.ptx:873) bra.uni $Lt_10_48642;
GPGPU-Sim PTX:    immediate post dominator      @  PC=0x13b8 (_1.ptx:888) sub.f32 %f136, %f21, %f119;
GPGPU-Sim PTX: 15 (potential) branch divergence @  PC=0x1430 (_1.ptx:903) @!%p12 bra $Lt_10_49410;
GPGPU-Sim PTX:    immediate post dominator      @  PC=0x1470 (_1.ptx:915) mov.f32 %f153, 0f3d4ccccd;   // 0.05
GPGPU-Sim PTX: 16 (potential) branch divergence @  PC=0x1450 (_1.ptx:908) bra.uni $Lt_10_49154;
GPGPU-Sim PTX:    immediate post dominator      @  PC=0x1470 (_1.ptx:915) mov.f32 %f153, 0f3d4ccccd;   // 0.05
GPGPU-Sim PTX: 17 (potential) branch divergence @  PC=0x1578 (_1.ptx:949) @!%p13 bra $Lt_10_58114;
GPGPU-Sim PTX:    immediate post dominator      @  PC=0x2080 (_1.ptx:1388) add.f32 %f399, %f126, %f126;
GPGPU-Sim PTX: 18 (potential) branch divergence @  PC=0x15c0 (_1.ptx:961) @%p14 bra $Lt_10_49922;
GPGPU-Sim PTX:    immediate post dominator      @  PC=0x17b0 (_1.ptx:1039) mov.f32 %f221, 0f00000000;   // 0
GPGPU-Sim PTX: 19 (potential) branch divergence @  PC=0x15e0 (_1.ptx:966) @!%p15 bra $Lt_10_50434;
GPGPU-Sim PTX:    immediate post dominator      @  PC=0x1638 (_1.ptx:982) mov.f32 %f190, %f183;
GPGPU-Sim PTX: 20 (potential) branch divergence @  PC=0x15f0 (_1.ptx:968) bra.uni $Lt_10_50178;
GPGPU-Sim PTX:    immediate post dominator      @  PC=0x1638 (_1.ptx:982) mov.f32 %f190, %f183;
GPGPU-Sim PTX: 21 (potential) branch divergence @  PC=0x1640 (_1.ptx:983) bra.uni $Lt_10_49666;
GPGPU-Sim PTX:    immediate post dominator      @  PC=0x17b0 (_1.ptx:1039) mov.f32 %f221, 0f00000000;   // 0
GPGPU-Sim PTX: 22 (potential) branch divergence @  PC=0x1738 (_1.ptx:1016) @%p18 bra $Lt_10_50946;
GPGPU-Sim PTX:    immediate post dominator      @  PC=0x17a8 (_1.ptx:1036) mov.f32 %f190, %f214;
GPGPU-Sim PTX: 23 (potential) branch divergence @  PC=0x1748 (_1.ptx:1018) bra.uni $Lt_10_51202;
GPGPU-Sim PTX:    immediate post dominator      @  PC=0x17a8 (_1.ptx:1036) mov.f32 %f190, %f214;
GPGPU-Sim PTX: 24 (potential) branch divergence @  PC=0x1768 (_1.ptx:1023) @!%p19 bra $Lt_10_51458;
GPGPU-Sim PTX:    immediate post dominator      @  PC=0x17a8 (_1.ptx:1036) mov.f32 %f190, %f214;
GPGPU-Sim PTX: 25 (potential) branch divergence @  PC=0x1778 (_1.ptx:1025) bra.uni $Lt_10_51202;
GPGPU-Sim PTX:    immediate post dominator      @  PC=0x17a8 (_1.ptx:1036) mov.f32 %f190, %f214;
GPGPU-Sim PTX: 26 (potential) branch divergence @  PC=0x17c0 (_1.ptx:1041) @!%p20 bra $Lt_10_58370;
GPGPU-Sim PTX:    immediate post dominator      @  PC=0x1828 (_1.ptx:1057) add.s32 %r50, %r50, 1;
GPGPU-Sim PTX: 27 (potential) branch divergence @  PC=0x1818 (_1.ptx:1052) @!%p21 bra $Lt_10_58370;
GPGPU-Sim PTX:    immediate post dominator      @  PC=0x1828 (_1.ptx:1057) add.s32 %r50, %r50, 1;
GPGPU-Sim PTX: 28 (potential) branch divergence @  PC=0x1848 (_1.ptx:1061) @%p22 bra $Lt_10_58882;
GPGPU-Sim PTX:    immediate post dominator      @  PC=0x1880 (_1.ptx:1071) @!%p23 bra $Lt_10_58114;
GPGPU-Sim PTX: 29 (potential) branch divergence @  PC=0x1860 (_1.ptx:1064) @%p23 bra $L_10_42498;
GPGPU-Sim PTX:    immediate post dominator      @  PC=0x1880 (_1.ptx:1071) @!%p23 bra $Lt_10_58114;
GPGPU-Sim PTX: 30 (potential) branch divergence @  PC=0x1868 (_1.ptx:1065) bra.uni $L_10_43266;
GPGPU-Sim PTX:    immediate post dominator      @  PC=0x1880 (_1.ptx:1071) @!%p23 bra $Lt_10_58114;
GPGPU-Sim PTX: 31 (potential) branch divergence @  PC=0x1880 (_1.ptx:1071) @!%p23 bra $Lt_10_58114;
GPGPU-Sim PTX:    immediate post dominator      @  PC=0x2080 (_1.ptx:1388) add.f32 %f399, %f126, %f126;
GPGPU-Sim PTX: 32 (potential) branch divergence @  PC=0x19c8 (_1.ptx:1115) @!%p24 bra $Lt_10_51714;
GPGPU-Sim PTX:    immediate post dominator      @  PC=0x2040 (_1.ptx:1375) mov.f32 %f394, 0f3f4ccccd;   // 0.8
GPGPU-Sim PTX: 33 (potential) branch divergence @  PC=0x19d8 (_1.ptx:1118) bra.uni $LDWendi___isnanf_192_1;
GPGPU-Sim PTX:    immediate post dominator      @  PC=0x2040 (_1.ptx:1375) mov.f32 %f394, 0f3f4ccccd;   // 0.8
GPGPU-Sim PTX: 34 (potential) branch divergence @  PC=0x19f8 (_1.ptx:1124) @!%p25 bra $Lt_10_7682;
GPGPU-Sim PTX:    immediate post dominator      @  PC=0x2040 (_1.ptx:1375) mov.f32 %f394, 0f3f4ccccd;   // 0.8
GPGPU-Sim PTX: 35 (potential) branch divergence @  PC=0x1a00 (_1.ptx:1125) bra.uni $Lt_10_7938;
GPGPU-Sim PTX:    immediate post dominator      @  PC=0x1a20 (_1.ptx:1133) mov.f32 %f272, 0f7f800000;   // ((1.0F)/(0.0F))
GPGPU-Sim PTX: 36 (potential) branch divergence @  PC=0x1a18 (_1.ptx:1130) bra.uni $LDWendi___isnanf_192_1;
GPGPU-Sim PTX:    immediate post dominator      @  PC=0x2040 (_1.ptx:1375) mov.f32 %f394, 0f3f4ccccd;   // 0.8
GPGPU-Sim PTX: 37 (potential) branch divergence @  PC=0x1a30 (_1.ptx:1135) @!%p26 bra $Lt_10_52226;
GPGPU-Sim PTX:    immediate post dominator      @  PC=0x2040 (_1.ptx:1375) mov.f32 %f394, 0f3f4ccccd;   // 0.8
GPGPU-Sim PTX: 38 (potential) branch divergence @  PC=0x1a40 (_1.ptx:1138) bra.uni $LDWendi___isnanf_192_1;
GPGPU-Sim PTX:    immediate post dominator      @  PC=0x2040 (_1.ptx:1375) mov.f32 %f394, 0f3f4ccccd;   // 0.8
GPGPU-Sim PTX: 39 (potential) branch divergence @  PC=0x1a58 (_1.ptx:1142) @!%p27 bra $Lt_10_52738;
GPGPU-Sim PTX:    immediate post dominator      @  PC=0x2040 (_1.ptx:1375) mov.f32 %f394, 0f3f4ccccd;   // 0.8
GPGPU-Sim PTX: 40 (potential) branch divergence @  PC=0x1ab8 (_1.ptx:1155) bra.uni $LDWendi___isnanf_192_1;
GPGPU-Sim PTX:    immediate post dominator      @  PC=0x2040 (_1.ptx:1375) mov.f32 %f394, 0f3f4ccccd;   // 0.8
GPGPU-Sim PTX: 41 (potential) branch divergence @  PC=0x1ad0 (_1.ptx:1159) @!%p29 bra $Lt_10_53250;
GPGPU-Sim PTX:    immediate post dominator      @  PC=0x2040 (_1.ptx:1375) mov.f32 %f394, 0f3f4ccccd;   // 0.8
GPGPU-Sim PTX: 42 (potential) branch divergence @  PC=0x1b20 (_1.ptx:1170) @!%p30 bra $Lt_10_53762;
GPGPU-Sim PTX:    immediate post dominator      @  PC=0x1b40 (_1.ptx:1177) mov.f32 %f268, %f284;
GPGPU-Sim PTX: 43 (potential) branch divergence @  PC=0x1b48 (_1.ptx:1178) bra.uni $LDWendi___isnanf_192_1;
GPGPU-Sim PTX:    immediate post dominator      @  PC=0x2040 (_1.ptx:1375) mov.f32 %f394, 0f3f4ccccd;   // 0.8
GPGPU-Sim PTX: 44 (potential) branch divergence @  PC=0x1b60 (_1.ptx:1183) @!%p31 bra $Lt_10_59394;
GPGPU-Sim PTX:    immediate post dominator      @  PC=0x2040 (_1.ptx:1375) mov.f32 %f394, 0f3f4ccccd;   // 0.8
GPGPU-Sim PTX: 45 (potential) branch divergence @  PC=0x1b88 (_1.ptx:1188) @!%p32 bra $Lt_10_59394;
GPGPU-Sim PTX:    immediate post dominator      @  PC=0x2040 (_1.ptx:1375) mov.f32 %f394, 0f3f4ccccd;   // 0.8
GPGPU-Sim PTX: 46 (potential) branch divergence @  PC=0x1ba0 (_1.ptx:1192) bra.uni $LDWendi___isnanf_192_1;
GPGPU-Sim PTX:    immediate post dominator      @  PC=0x2040 (_1.ptx:1375) mov.f32 %f394, 0f3f4ccccd;   // 0.8
GPGPU-Sim PTX: 47 (potential) branch divergence @  PC=0x1bd8 (_1.ptx:1202) @%p33 bra $Lt_10_54530;
GPGPU-Sim PTX:    immediate post dominator      @  PC=0x1c20 (_1.ptx:1216) sub.s32 %r64, %r64, 127;
GPGPU-Sim PTX: 48 (potential) branch divergence @  PC=0x1c10 (_1.ptx:1211) bra.uni $Lt_10_54274;
GPGPU-Sim PTX:    immediate post dominator      @  PC=0x1c20 (_1.ptx:1216) sub.s32 %r64, %r64, 127;
GPGPU-Sim PTX: 49 (potential) branch divergence @  PC=0x1c58 (_1.ptx:1224) @!%p34 bra $Lt_10_54786;
GPGPU-Sim PTX:    immediate post dominator      @  PC=0x1c78 (_1.ptx:1232) mov.f32 %f302, 0fbf800000;   // -1
GPGPU-Sim PTX: 50 (potential) branch divergence @  PC=0x1eb0 (_1.ptx:1312) @%p35 bra $Lt_10_55298;
GPGPU-Sim PTX:    immediate post dominator      @  PC=0x1ed8 (_1.ptx:1321) mov.f32 %f367, %f365;
GPGPU-Sim PTX: 51 (potential) branch divergence @  PC=0x1f98 (_1.ptx:1346) @!%p38 bra $Lt_10_55810;
GPGPU-Sim PTX:    immediate post dominator      @  PC=0x1fa8 (_1.ptx:1351) mov.f32 %f284, %f386;
GPGPU-Sim PTX: 52 (potential) branch divergence @  PC=0x2018 (_1.ptx:1365) @%p39 bra $Lt_10_56322;
GPGPU-Sim PTX:    immediate post dominator      @  PC=0x2038 (_1.ptx:1372) mov.f32 %f268, %f284;
GPGPU-Sim PTX: 53 (potential) branch divergence @  PC=0x2158 (_1.ptx:1419) @%p40 bra $L_10_42242;
GPGPU-Sim PTX:    immediate post dominator      @  PC=0x2170 (_1.ptx:1424) sub.s32 %r86, %r24, 1;
GPGPU-Sim PTX: 54 (potential) branch divergence @  PC=0x2168 (_1.ptx:1421) @%p41 bra $L_10_41474;
GPGPU-Sim PTX:    immediate post dominator      @  PC=0x2170 (_1.ptx:1424) sub.s32 %r86, %r24, 1;
GPGPU-Sim PTX: 55 (potential) branch divergence @  PC=0x2190 (_1.ptx:1428) @%p42 bra $Lt_10_56834;
GPGPU-Sim PTX:    immediate post dominator      @  PC=0x2288 (_1.ptx:1464) ld.global.u32 %r92, [%rd4+0];
GPGPU-Sim PTX: 56 (potential) branch divergence @  PC=0x2280 (_1.ptx:1461) @%p43 bra $Lt_10_57346;
GPGPU-Sim PTX:    immediate post dominator      @  PC=0x2288 (_1.ptx:1464) ld.global.u32 %r92, [%rd4+0];
GPGPU-Sim PTX: ... end of reconvergence points for _Z6renderPjP4Nodejjff
GPGPU-Sim PTX: ... done pre-decoding instructions for '_Z6renderPjP4Nodejjff'.
GPGPU-Sim PTX: instruction assembly for function '_ZN4dim3C1Ejjj'...   done.
GPGPU-Sim PTX: finding reconvergence points for '_ZN4dim3C1Ejjj'...
GPGPU-Sim PTX: Finding dominators for '_ZN4dim3C1Ejjj'...
GPGPU-Sim PTX: Finding immediate dominators for '_ZN4dim3C1Ejjj'...
GPGPU-Sim PTX: Finding postdominators for '_ZN4dim3C1Ejjj'...
GPGPU-Sim PTX: Finding immediate postdominators for '_ZN4dim3C1Ejjj'...
GPGPU-Sim PTX: pre-decoding instructions for '_ZN4dim3C1Ejjj'...
GPGPU-Sim PTX: reconvergence points for _ZN4dim3C1Ejjj...
GPGPU-Sim PTX: ... end of reconvergence points for _ZN4dim3C1Ejjj
GPGPU-Sim PTX: ... done pre-decoding instructions for '_ZN4dim3C1Ejjj'.
GPGPU-Sim PTX: finished parsing EMBEDDED .ptx file _1.ptx
Adding _cuobjdump_2.ptx with cubin handle 1
GPGPU-Sim PTX: extracting embedded .ptx to temporary file "_ptx_uiVI8A"
Running: cat _ptx_uiVI8A | sed 's/.version 1.5/.version 1.4/' | sed 's/, texmode_independent//' | sed 's/\(\.extern \.const\[1\] .b8 \w\+\)\[\]/\1\[1\]/' | sed 's/const\[.\]/const\[0\]/g' > _ptx2_6YFbG2
GPGPU-Sim PTX: generating ptxinfo using "$CUDA_INSTALL_PATH/bin/ptxas --gpu-name=sm_20 -v _ptx2_6YFbG2 --output-file  /dev/null 2> _ptx_uiVI8Ainfo"
GPGPU-Sim PTX: Kernel '_Z6renderPjP4Nodejjff' : regs=45, lmem=4, smem=0, cmem=180
GPGPU-Sim PTX: removing ptxinfo using "rm -f _ptx_uiVI8A _ptx2_6YFbG2 _ptx_uiVI8Ainfo"
GPGPU-Sim PTX: loading globals with explicit initializers... 
GPGPU-Sim PTX: finished loading globals (0 bytes total).
GPGPU-Sim PTX: loading constants with explicit initializers...  done.
GPGPU-Sim PTX: __cudaRegisterVar: hostVar = 0x636760; deviceAddress = MView; deviceName = MView
GPGPU-Sim PTX: __cudaRegisterVar: Registering const memory space of 48 bytes
GPGPU-Sim PTX registering constant MView (48 bytes) to name mapping
GPGPU-Sim PTX: __cudaRegisterVar: hostVar = 0x6367a0; deviceAddress = cnode; deviceName = cnode
GPGPU-Sim PTX: __cudaRegisterVar: Registering const memory space of 160 bytes
GPGPU-Sim PTX registering constant cnode (160 bytes) to name mapping
GPGPU-Sim PTX: cudaMemcpyToSymbol: symbol = 0x6367a0
GPGPU-Sim PTX: starting gpgpu_ptx_sim_memcpy_symbol with hostVar 0x0x6367a0
GPGPU-Sim PTX: gpgpu_ptx_sim_memcpy_symbol: Found PTX symbol w/ hostVar=0x6367a0
GPGPU-Sim PTX: gpgpu_ptx_sim_memcpy_symbol: copying const memory 160 bytes  to  symbol cnode+0 @0x100 ...
GPGPU-Sim PTX: cudaMemcpyToSymbol: symbol = 0x636760
GPGPU-Sim PTX: starting gpgpu_ptx_sim_memcpy_symbol with hostVar 0x0x636760
GPGPU-Sim PTX: gpgpu_ptx_sim_memcpy_symbol: Found PTX symbol w/ hostVar=0x636760
GPGPU-Sim PTX: gpgpu_ptx_sim_memcpy_symbol: copying const memory 48 bytes  to  symbol MView+0 @0x200 ...

GPGPU-Sim PTX: cudaLaunch for 0x0x40a280 (mode=performance simulation) on stream 0
GPGPU-Sim PTX: pushing kernel '_Z6renderPjP4Nodejjff' to stream 0, gridDim= (16,32,1) blockDim = (16,8,1) 
kernel '_Z6renderPjP4Nodejjff' transfer to GPU hardware scheduler
GPGPU-Sim uArch: Shader 1 bind to kernel 1 '_Z6renderPjP4Nodejjff'
GPGPU-Sim uArch: CTA/core = 5, limited by: regs
GPGPU-Sim uArch: core:  1, cta: 0 initialized @(1,0)
GPGPU-Sim uArch: Shader 2 bind to kernel 1 '_Z6renderPjP4Nodejjff'
GPGPU-Sim uArch: core:  2, cta: 0 initialized @(1,0)
GPGPU-Sim uArch: Shader 3 bind to kernel 1 '_Z6renderPjP4Nodejjff'
GPGPU-Sim uArch: core:  3, cta: 0 initialized @(1,0)
GPGPU-Sim uArch: Shader 4 bind to kernel 1 '_Z6renderPjP4Nodejjff'
GPGPU-Sim uArch: core:  4, cta: 0 initialized @(1,0)
GPGPU-Sim uArch: Shader 5 bind to kernel 1 '_Z6renderPjP4Nodejjff'
GPGPU-Sim uArch: core:  5, cta: 0 initialized @(1,0)
GPGPU-Sim uArch: Shader 6 bind to kernel 1 '_Z6renderPjP4Nodejjff'
GPGPU-Sim uArch: core:  6, cta: 0 initialized @(1,0)
GPGPU-Sim uArch: Shader 7 bind to kernel 1 '_Z6renderPjP4Nodejjff'
GPGPU-Sim uArch: core:  7, cta: 0 initialized @(1,0)
GPGPU-Sim uArch: Shader 8 bind to kernel 1 '_Z6renderPjP4Nodejjff'
GPGPU-Sim uArch: core:  8, cta: 0 initialized @(1,0)
GPGPU-Sim uArch: Shader 9 bind to kernel 1 '_Z6renderPjP4Nodejjff'
GPGPU-Sim uArch: core:  9, cta: 0 initialized @(1,0)
GPGPU-Sim uArch: Shader 10 bind to kernel 1 '_Z6renderPjP4Nodejjff'
GPGPU-Sim uArch: core: 10, cta: 0 initialized @(1,0)
GPGPU-Sim uArch: Shader 11 bind to kernel 1 '_Z6renderPjP4Nodejjff'
GPGPU-Sim uArch: core: 11, cta: 0 initialized @(1,0)
GPGPU-Sim uArch: Shader 12 bind to kernel 1 '_Z6renderPjP4Nodejjff'
GPGPU-Sim uArch: core: 12, cta: 0 initialized @(1,0)
GPGPU-Sim uArch: Shader 13 bind to kernel 1 '_Z6renderPjP4Nodejjff'
GPGPU-Sim uArch: core: 13, cta: 0 initialized @(1,0)
GPGPU-Sim uArch: Shader 14 bind to kernel 1 '_Z6renderPjP4Nodejjff'
GPGPU-Sim uArch: core: 14, cta: 0 initialized @(1,0)
GPGPU-Sim uArch: Shader 0 bind to kernel 1 '_Z6renderPjP4Nodejjff'
GPGPU-Sim uArch: core:  0, cta: 0 initialized @(1,0)
GPGPU-Sim uArch: core:  1, cta: 1 initialized @(2,0)
GPGPU-Sim uArch: core:  2, cta: 1 initialized @(2,0)
GPGPU-Sim uArch: core:  3, cta: 1 initialized @(2,0)
GPGPU-Sim uArch: core:  4, cta: 1 initialized @(2,0)
GPGPU-Sim uArch: core:  5, cta: 1 initialized @(2,0)
GPGPU-Sim uArch: core:  6, cta: 1 initialized @(2,0)
GPGPU-Sim uArch: core:  7, cta: 1 initialized @(2,0)
GPGPU-Sim uArch: core:  8, cta: 1 initialized @(2,0)
GPGPU-Sim uArch: core:  9, cta: 1 initialized @(2,0)
GPGPU-Sim uArch: core: 10, cta: 1 initialized @(2,0)
GPGPU-Sim uArch: core: 11, cta: 1 initialized @(2,0)
GPGPU-Sim uArch: core: 12, cta: 1 initialized @(2,0)
GPGPU-Sim uArch: core: 13, cta: 1 initialized @(2,0)
GPGPU-Sim uArch: core: 14, cta: 1 initialized @(2,0)
GPGPU-Sim uArch: core:  0, cta: 1 initialized @(2,0)
GPGPU-Sim uArch: core:  1, cta: 2 initialized @(3,0)
GPGPU-Sim uArch: core:  2, cta: 2 initialized @(3,0)
GPGPU-Sim uArch: core:  3, cta: 2 initialized @(3,0)
GPGPU-Sim uArch: core:  4, cta: 2 initialized @(3,0)
GPGPU-Sim uArch: core:  5, cta: 2 initialized @(3,0)
GPGPU-Sim uArch: core:  6, cta: 2 initialized @(3,0)
GPGPU-Sim uArch: core:  7, cta: 2 initialized @(3,0)
GPGPU-Sim uArch: core:  8, cta: 2 initialized @(3,0)
GPGPU-Sim uArch: core:  9, cta: 2 initialized @(3,0)
GPGPU-Sim uArch: core: 10, cta: 2 initialized @(3,0)
GPGPU-Sim uArch: core: 11, cta: 2 initialized @(3,0)
GPGPU-Sim uArch: core: 12, cta: 2 initialized @(3,0)
GPGPU-Sim uArch: core: 13, cta: 2 initialized @(3,0)
GPGPU-Sim uArch: core: 14, cta: 2 initialized @(3,0)
GPGPU-Sim uArch: core:  0, cta: 2 initialized @(3,0)
GPGPU-Sim uArch: core:  1, cta: 3 initialized @(4,0)
GPGPU-Sim uArch: core:  2, cta: 3 initialized @(4,0)
GPGPU-Sim uArch: core:  3, cta: 3 initialized @(4,0)
GPGPU-Sim uArch: core:  4, cta: 3 initialized @(4,0)
GPGPU-Sim uArch: core:  5, cta: 3 initialized @(4,0)
GPGPU-Sim uArch: core:  6, cta: 3 initialized @(4,0)
GPGPU-Sim uArch: core:  7, cta: 3 initialized @(4,0)
GPGPU-Sim uArch: core:  8, cta: 3 initialized @(4,0)
GPGPU-Sim uArch: core:  9, cta: 3 initialized @(4,0)
GPGPU-Sim uArch: core: 10, cta: 3 initialized @(4,0)
GPGPU-Sim uArch: core: 11, cta: 3 initialized @(4,0)
GPGPU-Sim uArch: core: 12, cta: 3 initialized @(4,0)
GPGPU-Sim uArch: core: 13, cta: 3 initialized @(4,0)
GPGPU-Sim uArch: core: 14, cta: 3 initialized @(4,0)
GPGPU-Sim uArch: core:  0, cta: 3 initialized @(4,0)
GPGPU-Sim uArch: core:  1, cta: 4 initialized @(5,0)
GPGPU-Sim uArch: core:  2, cta: 4 initialized @(5,0)
GPGPU-Sim uArch: core:  3, cta: 4 initialized @(5,0)
GPGPU-Sim uArch: core:  4, cta: 4 initialized @(5,0)
GPGPU-Sim uArch: core:  5, cta: 4 initialized @(5,0)
GPGPU-Sim uArch: core:  6, cta: 4 initialized @(5,0)
GPGPU-Sim uArch: core:  7, cta: 4 initialized @(5,0)
GPGPU-Sim uArch: core:  8, cta: 4 initialized @(5,0)
GPGPU-Sim uArch: core:  9, cta: 4 initialized @(5,0)
GPGPU-Sim uArch: core: 10, cta: 4 initialized @(5,0)
GPGPU-Sim uArch: core: 11, cta: 4 initialized @(5,0)
GPGPU-Sim uArch: core: 12, cta: 4 initialized @(5,0)
GPGPU-Sim uArch: core: 13, cta: 4 initialized @(5,0)
GPGPU-Sim uArch: core: 14, cta: 4 initialized @(5,0)
GPGPU-Sim uArch: core:  0, cta: 4 initialized @(5,0)
GPGPU-Sim uArch: cycles simulated: 500  inst.: 34240 (ipc=68.5) sim_rate=34240 (inst/sec) elapsed = 0:0:00:01 / Tue May 12 19:27:21 2015
GPGPU-Sim uArch: cycles simulated: 1000  inst.: 62848 (ipc=62.8) sim_rate=31424 (inst/sec) elapsed = 0:0:00:02 / Tue May 12 19:27:22 2015
GPGPU-Sim uArch: cycles simulated: 1500  inst.: 72032 (ipc=48.0) sim_rate=24010 (inst/sec) elapsed = 0:0:00:03 / Tue May 12 19:27:23 2015
GPGPU-Sim PTX: 100000 instructions simulated : ctaid=(10,0,0) tid=(15,1,0)
GPGPU-Sim uArch: cycles simulated: 2500  inst.: 109792 (ipc=43.9) sim_rate=27448 (inst/sec) elapsed = 0:0:00:04 / Tue May 12 19:27:24 2015
GPGPU-Sim uArch: cycles simulated: 3000  inst.: 127680 (ipc=42.6) sim_rate=25536 (inst/sec) elapsed = 0:0:00:05 / Tue May 12 19:27:25 2015
GPGPU-Sim uArch: cycles simulated: 3500  inst.: 168448 (ipc=48.1) sim_rate=28074 (inst/sec) elapsed = 0:0:00:06 / Tue May 12 19:27:26 2015
GPGPU-Sim PTX: 200000 instructions simulated : ctaid=(1,0,0) tid=(15,1,0)
GPGPU-Sim uArch: cycles simulated: 4000  inst.: 216736 (ipc=54.2) sim_rate=30962 (inst/sec) elapsed = 0:0:00:07 / Tue May 12 19:27:27 2015
GPGPU-Sim uArch: cycles simulated: 4500  inst.: 245440 (ipc=54.5) sim_rate=30680 (inst/sec) elapsed = 0:0:00:08 / Tue May 12 19:27:28 2015
GPGPU-Sim PTX: 300000 instructions simulated : ctaid=(7,1,0) tid=(15,1,0)
GPGPU-Sim uArch: cycles simulated: 5000  inst.: 335840 (ipc=67.2) sim_rate=37315 (inst/sec) elapsed = 0:0:00:09 / Tue May 12 19:27:29 2015
GPGPU-Sim PTX: 400000 instructions simulated : ctaid=(6,0,0) tid=(15,1,0)
GPGPU-Sim uArch: cycles simulated: 5500  inst.: 431872 (ipc=78.5) sim_rate=39261 (inst/sec) elapsed = 0:0:00:11 / Tue May 12 19:27:31 2015
GPGPU-Sim PTX: 500000 instructions simulated : ctaid=(12,1,0) tid=(15,7,0)
GPGPU-Sim uArch: cycles simulated: 6000  inst.: 530208 (ipc=88.4) sim_rate=44184 (inst/sec) elapsed = 0:0:00:12 / Tue May 12 19:27:32 2015
GPGPU-Sim PTX: 600000 instructions simulated : ctaid=(11,2,0) tid=(15,3,0)
GPGPU-Sim uArch: cycles simulated: 6500  inst.: 653280 (ipc=100.5) sim_rate=50252 (inst/sec) elapsed = 0:0:00:13 / Tue May 12 19:27:33 2015
GPGPU-Sim uArch: cycles simulated: 7000  inst.: 660832 (ipc=94.4) sim_rate=47202 (inst/sec) elapsed = 0:0:00:14 / Tue May 12 19:27:34 2015
GPGPU-Sim PTX: 700000 instructions simulated : ctaid=(11,0,0) tid=(15,5,0)
GPGPU-Sim PTX: 800000 instructions simulated : ctaid=(10,1,0) tid=(15,1,0)
GPGPU-Sim uArch: cycles simulated: 7500  inst.: 857952 (ipc=114.4) sim_rate=53622 (inst/sec) elapsed = 0:0:00:16 / Tue May 12 19:27:36 2015
GPGPU-Sim PTX: 900000 instructions simulated : ctaid=(8,2,0) tid=(15,7,0)
GPGPU-Sim PTX: 1000000 instructions simulated : ctaid=(12,2,0) tid=(15,3,0)
GPGPU-Sim uArch: cycles simulated: 8000  inst.: 1002464 (ipc=125.3) sim_rate=58968 (inst/sec) elapsed = 0:0:00:17 / Tue May 12 19:27:37 2015
GPGPU-Sim PTX: 1100000 instructions simulated : ctaid=(7,3,0) tid=(15,3,0)
GPGPU-Sim uArch: cycles simulated: 8500  inst.: 1108512 (ipc=130.4) sim_rate=58342 (inst/sec) elapsed = 0:0:00:19 / Tue May 12 19:27:39 2015
GPGPU-Sim PTX: 1200000 instructions simulated : ctaid=(9,2,0) tid=(15,7,0)
GPGPU-Sim PTX: 1300000 instructions simulated : ctaid=(13,3,0) tid=(15,5,0)
GPGPU-Sim uArch: cycles simulated: 9000  inst.: 1323424 (ipc=147.0) sim_rate=66171 (inst/sec) elapsed = 0:0:00:20 / Tue May 12 19:27:40 2015
GPGPU-Sim PTX: 1400000 instructions simulated : ctaid=(8,3,0) tid=(15,5,0)
GPGPU-Sim uArch: cycles simulated: 9500  inst.: 1468096 (ipc=154.5) sim_rate=66731 (inst/sec) elapsed = 0:0:00:22 / Tue May 12 19:27:42 2015
GPGPU-Sim PTX: 1500000 instructions simulated : ctaid=(9,1,0) tid=(15,1,0)
GPGPU-Sim PTX: 1600000 instructions simulated : ctaid=(0,0,0) tid=(15,5,0)
GPGPU-Sim PTX: 1700000 instructions simulated : ctaid=(12,1,0) tid=(15,3,0)
GPGPU-Sim uArch: cycles simulated: 10000  inst.: 1686400 (ipc=168.6) sim_rate=73321 (inst/sec) elapsed = 0:0:00:23 / Tue May 12 19:27:43 2015
GPGPU-Sim PTX: 1800000 instructions simulated : ctaid=(0,0,0) tid=(15,7,0)
GPGPU-Sim PTX: 1900000 instructions simulated : ctaid=(4,1,0) tid=(15,1,0)
GPGPU-Sim uArch: cycles simulated: 10500  inst.: 1919456 (ipc=182.8) sim_rate=76778 (inst/sec) elapsed = 0:0:00:25 / Tue May 12 19:27:45 2015
GPGPU-Sim PTX: 2000000 instructions simulated : ctaid=(8,2,0) tid=(15,7,0)
GPGPU-Sim PTX: 2100000 instructions simulated : ctaid=(15,0,0) tid=(15,5,0)
GPGPU-Sim uArch: cycles simulated: 11000  inst.: 2150432 (ipc=195.5) sim_rate=82708 (inst/sec) elapsed = 0:0:00:26 / Tue May 12 19:27:46 2015
GPGPU-Sim PTX: 2200000 instructions simulated : ctaid=(4,1,0) tid=(15,5,0)
GPGPU-Sim PTX: 2300000 instructions simulated : ctaid=(8,2,0) tid=(15,3,0)
GPGPU-Sim PTX: 2400000 instructions simulated : ctaid=(14,1,0) tid=(15,3,0)
GPGPU-Sim uArch: cycles simulated: 11500  inst.: 2381184 (ipc=207.1) sim_rate=85042 (inst/sec) elapsed = 0:0:00:28 / Tue May 12 19:27:48 2015
GPGPU-Sim PTX: 2500000 instructions simulated : ctaid=(9,0,0) tid=(15,5,0)
GPGPU-Sim PTX: 2600000 instructions simulated : ctaid=(5,2,0) tid=(15,7,0)
GPGPU-Sim uArch: cycles simulated: 12000  inst.: 2614592 (ipc=217.9) sim_rate=87153 (inst/sec) elapsed = 0:0:00:30 / Tue May 12 19:27:50 2015
GPGPU-Sim PTX: 2700000 instructions simulated : ctaid=(6,0,0) tid=(15,5,0)
GPGPU-Sim PTX: 2800000 instructions simulated : ctaid=(6,3,0) tid=(15,5,0)
GPGPU-Sim uArch: cycles simulated: 12500  inst.: 2810752 (ipc=224.9) sim_rate=90669 (inst/sec) elapsed = 0:0:00:31 / Tue May 12 19:27:51 2015
GPGPU-Sim PTX: 2900000 instructions simulated : ctaid=(13,2,0) tid=(15,1,0)
GPGPU-Sim PTX: 3000000 instructions simulated : ctaid=(14,0,0) tid=(15,1,0)
GPGPU-Sim PTX: 3100000 instructions simulated : ctaid=(2,3,0) tid=(15,1,0)
GPGPU-Sim uArch: cycles simulated: 13000  inst.: 3029504 (ipc=233.0) sim_rate=91803 (inst/sec) elapsed = 0:0:00:33 / Tue May 12 19:27:53 2015
GPGPU-Sim PTX: 3200000 instructions simulated : ctaid=(5,2,0) tid=(15,7,0)
GPGPU-Sim PTX: 3300000 instructions simulated : ctaid=(11,3,0) tid=(15,1,0)
GPGPU-Sim uArch: cycles simulated: 13500  inst.: 3234720 (ipc=239.6) sim_rate=95138 (inst/sec) elapsed = 0:0:00:34 / Tue May 12 19:27:54 2015
GPGPU-Sim PTX: 3400000 instructions simulated : ctaid=(7,1,0) tid=(15,5,0)
GPGPU-Sim PTX: 3500000 instructions simulated : ctaid=(1,3,0) tid=(15,1,0)
GPGPU-Sim uArch: cycles simulated: 14000  inst.: 3419136 (ipc=244.2) sim_rate=94976 (inst/sec) elapsed = 0:0:00:36 / Tue May 12 19:27:56 2015
GPGPU-Sim PTX: 3600000 instructions simulated : ctaid=(15,2,0) tid=(15,5,0)
GPGPU-Sim PTX: 3700000 instructions simulated : ctaid=(2,1,0) tid=(15,3,0)
GPGPU-Sim uArch: cycles simulated: 14500  inst.: 3635100 (ipc=250.7) sim_rate=98245 (inst/sec) elapsed = 0:0:00:37 / Tue May 12 19:27:57 2015
GPGPU-Sim PTX: 3800000 instructions simulated : ctaid=(15,2,0) tid=(6,2,0)
GPGPU-Sim PTX: 3900000 instructions simulated : ctaid=(9,3,0) tid=(3,7,0)
GPGPU-Sim uArch: cycles simulated: 15000  inst.: 3852108 (ipc=256.8) sim_rate=98772 (inst/sec) elapsed = 0:0:00:39 / Tue May 12 19:27:59 2015
GPGPU-Sim PTX: 4000000 instructions simulated : ctaid=(5,1,0) tid=(7,1,0)
GPGPU-Sim PTX: 4100000 instructions simulated : ctaid=(0,0,0) tid=(3,2,0)
GPGPU-Sim uArch: cycles simulated: 15500  inst.: 4081331 (ipc=263.3) sim_rate=99544 (inst/sec) elapsed = 0:0:00:41 / Tue May 12 19:28:01 2015
GPGPU-Sim PTX: 4200000 instructions simulated : ctaid=(3,0,0) tid=(1,7,0)
GPGPU-Sim PTX: 4300000 instructions simulated : ctaid=(9,1,0) tid=(12,1,0)
GPGPU-Sim PTX: 4400000 instructions simulated : ctaid=(2,0,0) tid=(15,5,0)
GPGPU-Sim uArch: cycles simulated: 16000  inst.: 4312768 (ipc=269.5) sim_rate=102684 (inst/sec) elapsed = 0:0:00:42 / Tue May 12 19:28:02 2015
GPGPU-Sim PTX: 4500000 instructions simulated : ctaid=(7,0,0) tid=(15,3,0)
GPGPU-Sim PTX: 4600000 instructions simulated : ctaid=(12,1,0) tid=(12,5,0)
GPGPU-Sim uArch: cycles simulated: 16500  inst.: 4543596 (ipc=275.4) sim_rate=103263 (inst/sec) elapsed = 0:0:00:44 / Tue May 12 19:28:04 2015
GPGPU-Sim PTX: 4700000 instructions simulated : ctaid=(13,0,0) tid=(3,5,0)
GPGPU-Sim PTX: 4800000 instructions simulated : ctaid=(14,1,0) tid=(15,1,0)
GPGPU-Sim PTX: 4900000 instructions simulated : ctaid=(3,3,0) tid=(7,4,0)
GPGPU-Sim uArch: cycles simulated: 17000  inst.: 4772536 (ipc=280.7) sim_rate=106056 (inst/sec) elapsed = 0:0:00:45 / Tue May 12 19:28:05 2015
GPGPU-Sim PTX: 5000000 instructions simulated : ctaid=(3,1,0) tid=(13,2,0)
GPGPU-Sim PTX: 5100000 instructions simulated : ctaid=(4,1,0) tid=(15,5,0)
GPGPU-Sim uArch: cycles simulated: 17500  inst.: 4995968 (ipc=285.5) sim_rate=106297 (inst/sec) elapsed = 0:0:00:47 / Tue May 12 19:28:07 2015
GPGPU-Sim PTX: 5200000 instructions simulated : ctaid=(4,3,0) tid=(7,3,0)
GPGPU-Sim PTX: 5300000 instructions simulated : ctaid=(11,2,0) tid=(8,4,0)
GPGPU-Sim uArch: cycles simulated: 18000  inst.: 5192340 (ipc=288.5) sim_rate=105966 (inst/sec) elapsed = 0:0:00:49 / Tue May 12 19:28:09 2015
GPGPU-Sim PTX: 5400000 instructions simulated : ctaid=(6,1,0) tid=(10,1,0)
GPGPU-Sim PTX: 5500000 instructions simulated : ctaid=(12,3,0) tid=(10,7,0)
GPGPU-Sim uArch: cycles simulated: 18500  inst.: 5386666 (ipc=291.2) sim_rate=107733 (inst/sec) elapsed = 0:0:00:50 / Tue May 12 19:28:10 2015
GPGPU-Sim PTX: 5600000 instructions simulated : ctaid=(10,2,0) tid=(10,7,0)
GPGPU-Sim PTX: 5700000 instructions simulated : ctaid=(2,1,0) tid=(14,4,0)
GPGPU-Sim uArch: cycles simulated: 19000  inst.: 5595926 (ipc=294.5) sim_rate=107613 (inst/sec) elapsed = 0:0:00:52 / Tue May 12 19:28:12 2015
GPGPU-Sim PTX: 5800000 instructions simulated : ctaid=(2,3,0) tid=(10,0,0)
GPGPU-Sim PTX: 5900000 instructions simulated : ctaid=(5,3,0) tid=(0,3,0)
GPGPU-Sim uArch: cycles simulated: 19500  inst.: 5788374 (ipc=296.8) sim_rate=107192 (inst/sec) elapsed = 0:0:00:54 / Tue May 12 19:28:14 2015
GPGPU-Sim PTX: 6000000 instructions simulated : ctaid=(10,0,0) tid=(14,3,0)
GPGPU-Sim PTX: 6100000 instructions simulated : ctaid=(10,1,0) tid=(14,1,0)
GPGPU-Sim uArch: cycles simulated: 20000  inst.: 5961206 (ipc=298.1) sim_rate=108385 (inst/sec) elapsed = 0:0:00:55 / Tue May 12 19:28:15 2015
GPGPU-Sim PTX: 6200000 instructions simulated : ctaid=(14,1,0) tid=(14,7,0)
GPGPU-Sim PTX: 6300000 instructions simulated : ctaid=(9,2,0) tid=(14,3,0)
GPGPU-Sim uArch: cycles simulated: 20500  inst.: 6158198 (ipc=300.4) sim_rate=108038 (inst/sec) elapsed = 0:0:00:57 / Tue May 12 19:28:17 2015
GPGPU-Sim PTX: 6400000 instructions simulated : ctaid=(0,2,0) tid=(14,3,0)
GPGPU-Sim uArch: cycles simulated: 21000  inst.: 6327702 (ipc=301.3) sim_rate=109098 (inst/sec) elapsed = 0:0:00:58 / Tue May 12 19:28:18 2015
GPGPU-Sim PTX: 6500000 instructions simulated : ctaid=(5,1,0) tid=(14,1,0)
GPGPU-Sim PTX: 6600000 instructions simulated : ctaid=(15,3,0) tid=(14,1,0)
GPGPU-Sim uArch: cycles simulated: 21500  inst.: 6506006 (ipc=302.6) sim_rate=108433 (inst/sec) elapsed = 0:0:01:00 / Tue May 12 19:28:20 2015
GPGPU-Sim PTX: 6700000 instructions simulated : ctaid=(5,1,0) tid=(14,5,0)
GPGPU-Sim PTX: 6800000 instructions simulated : ctaid=(11,0,0) tid=(14,1,0)
GPGPU-Sim uArch: cycles simulated: 22000  inst.: 6719078 (ipc=305.4) sim_rate=110148 (inst/sec) elapsed = 0:0:01:01 / Tue May 12 19:28:21 2015
GPGPU-Sim PTX: 6900000 instructions simulated : ctaid=(8,0,0) tid=(2,5,0)
GPGPU-Sim PTX: 7000000 instructions simulated : ctaid=(0,0,0) tid=(2,1,0)
GPGPU-Sim PTX: 7100000 instructions simulated : ctaid=(4,0,0) tid=(10,1,0)
GPGPU-Sim uArch: cycles simulated: 22500  inst.: 6936774 (ipc=308.3) sim_rate=110107 (inst/sec) elapsed = 0:0:01:03 / Tue May 12 19:28:23 2015
GPGPU-Sim PTX: 7200000 instructions simulated : ctaid=(5,0,0) tid=(11,4,0)
GPGPU-Sim PTX: 7300000 instructions simulated : ctaid=(1,0,0) tid=(1,3,0)
GPGPU-Sim uArch: cycles simulated: 23000  inst.: 7163108 (ipc=311.4) sim_rate=110201 (inst/sec) elapsed = 0:0:01:05 / Tue May 12 19:28:25 2015
GPGPU-Sim PTX: 7400000 instructions simulated : ctaid=(11,1,0) tid=(0,2,0)
GPGPU-Sim PTX: 7500000 instructions simulated : ctaid=(3,0,0) tid=(14,5,0)
GPGPU-Sim uArch: cycles simulated: 23500  inst.: 7386306 (ipc=314.3) sim_rate=111913 (inst/sec) elapsed = 0:0:01:06 / Tue May 12 19:28:26 2015
GPGPU-Sim PTX: 7600000 instructions simulated : ctaid=(7,1,0) tid=(8,4,0)
GPGPU-Sim PTX: 7700000 instructions simulated : ctaid=(12,2,0) tid=(14,6,0)
GPGPU-Sim PTX: 7800000 instructions simulated : ctaid=(12,1,0) tid=(4,6,0)
GPGPU-Sim uArch: cycles simulated: 24000  inst.: 7608032 (ipc=317.0) sim_rate=111882 (inst/sec) elapsed = 0:0:01:08 / Tue May 12 19:28:28 2015
GPGPU-Sim PTX: 7900000 instructions simulated : ctaid=(0,2,0) tid=(9,2,0)
GPGPU-Sim uArch: Shader 0 finished CTA #0 (24289,0), 4 CTAs running
GPGPU-Sim uArch: core:  0, cta: 0 initialized @(24290,0)
GPGPU-Sim PTX: 8000000 instructions simulated : ctaid=(5,1,0) tid=(4,3,0)
GPGPU-Sim uArch: Shader 1 finished CTA #0 (24437,0), 4 CTAs running
GPGPU-Sim uArch: core:  1, cta: 0 initialized @(24438,0)
GPGPU-Sim uArch: Shader 14 finished CTA #0 (24489,0), 4 CTAs running
GPGPU-Sim uArch: core: 14, cta: 0 initialized @(24490,0)
GPGPU-Sim uArch: cycles simulated: 24500  inst.: 7824361 (ipc=319.4) sim_rate=110202 (inst/sec) elapsed = 0:0:01:11 / Tue May 12 19:28:31 2015
GPGPU-Sim uArch: Shader 3 finished CTA #0 (24505,0), 4 CTAs running
GPGPU-Sim uArch: core:  3, cta: 0 initialized @(24506,0)
GPGPU-Sim PTX: 8100000 instructions simulated : ctaid=(14,1,0) tid=(9,0,0)
GPGPU-Sim uArch: Shader 1 finished CTA #1 (24695,0), 4 CTAs running
GPGPU-Sim uArch: core:  1, cta: 1 initialized @(24696,0)
GPGPU-Sim uArch: Shader 0 finished CTA #1 (24706,0), 4 CTAs running
GPGPU-Sim uArch: core:  0, cta: 1 initialized @(24707,0)
GPGPU-Sim PTX: 8200000 instructions simulated : ctaid=(7,3,0) tid=(12,1,0)
GPGPU-Sim uArch: Shader 3 finished CTA #1 (24916,0), 4 CTAs running
GPGPU-Sim uArch: core:  3, cta: 1 initialized @(24917,0)
GPGPU-Sim uArch: cycles simulated: 25000  inst.: 8033079 (ipc=321.3) sim_rate=110042 (inst/sec) elapsed = 0:0:01:13 / Tue May 12 19:28:33 2015
GPGPU-Sim uArch: Shader 2 finished CTA #0 (25011,0), 4 CTAs running
GPGPU-Sim uArch: core:  2, cta: 0 initialized @(25012,0)
GPGPU-Sim PTX: 8300000 instructions simulated : ctaid=(6,2,0) tid=(4,6,0)
GPGPU-Sim uArch: Shader 2 finished CTA #1 (25297,0), 4 CTAs running
GPGPU-Sim uArch: core:  2, cta: 1 initialized @(25298,0)
GPGPU-Sim PTX: 8400000 instructions simulated : ctaid=(12,0,0) tid=(5,2,0)
GPGPU-Sim uArch: cycles simulated: 25500  inst.: 8230939 (ipc=322.8) sim_rate=109745 (inst/sec) elapsed = 0:0:01:15 / Tue May 12 19:28:35 2015
GPGPU-Sim PTX: 8500000 instructions simulated : ctaid=(4,0,0) tid=(0,2,0)
GPGPU-Sim uArch: Shader 0 finished CTA #2 (25807,0), 4 CTAs running
GPGPU-Sim uArch: core:  0, cta: 2 initialized @(25808,0)
GPGPU-Sim uArch: Shader 1 finished CTA #2 (25809,0), 4 CTAs running
GPGPU-Sim uArch: Shader 4 finished CTA #1 (25809,0), 4 CTAs running
GPGPU-Sim uArch: core:  1, cta: 2 initialized @(25810,0)
GPGPU-Sim uArch: core:  4, cta: 1 initialized @(25810,0)
GPGPU-Sim uArch: Shader 3 finished CTA #2 (25845,0), 4 CTAs running
GPGPU-Sim uArch: core:  3, cta: 2 initialized @(25846,0)
GPGPU-Sim PTX: 8600000 instructions simulated : ctaid=(12,0,0) tid=(0,0,0)
GPGPU-Sim uArch: cycles simulated: 26000  inst.: 8412682 (ipc=323.6) sim_rate=109255 (inst/sec) elapsed = 0:0:01:17 / Tue May 12 19:28:37 2015
GPGPU-Sim PTX: 8700000 instructions simulated : ctaid=(7,1,0) tid=(15,2,0)
GPGPU-Sim PTX: 8800000 instructions simulated : ctaid=(8,2,0) tid=(6,0,0)
GPGPU-Sim uArch: cycles simulated: 26500  inst.: 8597804 (ipc=324.4) sim_rate=108832 (inst/sec) elapsed = 0:0:01:19 / Tue May 12 19:28:39 2015
GPGPU-Sim PTX: 8900000 instructions simulated : ctaid=(7,1,0) tid=(3,7,0)
GPGPU-Sim uArch: Shader 2 finished CTA #2 (26781,0), 4 CTAs running
GPGPU-Sim uArch: core:  2, cta: 2 initialized @(26782,0)
GPGPU-Sim PTX: 9000000 instructions simulated : ctaid=(4,3,0) tid=(0,1,0)
GPGPU-Sim uArch: cycles simulated: 27000  inst.: 8780566 (ipc=325.2) sim_rate=109757 (inst/sec) elapsed = 0:0:01:20 / Tue May 12 19:28:40 2015
GPGPU-Sim PTX: 9100000 instructions simulated : ctaid=(10,3,0) tid=(9,5,0)
GPGPU-Sim PTX: 9200000 instructions simulated : ctaid=(11,3,0) tid=(6,7,0)
GPGPU-Sim uArch: cycles simulated: 27500  inst.: 8959535 (ipc=325.8) sim_rate=109262 (inst/sec) elapsed = 0:0:01:22 / Tue May 12 19:28:42 2015
GPGPU-Sim PTX: 9300000 instructions simulated : ctaid=(1,3,0) tid=(2,0,0)
GPGPU-Sim uArch: cycles simulated: 28000  inst.: 9126887 (ipc=326.0) sim_rate=108653 (inst/sec) elapsed = 0:0:01:24 / Tue May 12 19:28:44 2015
GPGPU-Sim PTX: 9400000 instructions simulated : ctaid=(4,0,0) tid=(0,1,0)
GPGPU-Sim uArch: Shader 4 finished CTA #2 (28285,0), 4 CTAs running
GPGPU-Sim uArch: core:  4, cta: 2 initialized @(28286,0)
GPGPU-Sim PTX: 9500000 instructions simulated : ctaid=(9,1,0) tid=(13,7,0)
GPGPU-Sim uArch: cycles simulated: 28500  inst.: 9283857 (ipc=325.7) sim_rate=109221 (inst/sec) elapsed = 0:0:01:25 / Tue May 12 19:28:45 2015
GPGPU-Sim PTX: 9600000 instructions simulated : ctaid=(15,2,0) tid=(11,7,0)
GPGPU-Sim PTX: 9700000 instructions simulated : ctaid=(9,4,0) tid=(11,7,0)
GPGPU-Sim uArch: cycles simulated: 29000  inst.: 9446454 (ipc=325.7) sim_rate=108579 (inst/sec) elapsed = 0:0:01:27 / Tue May 12 19:28:47 2015
GPGPU-Sim uArch: Shader 5 finished CTA #2 (29061,0), 4 CTAs running
GPGPU-Sim uArch: core:  5, cta: 2 initialized @(29062,0)
GPGPU-Sim PTX: 9800000 instructions simulated : ctaid=(14,2,0) tid=(13,6,0)
GPGPU-Sim uArch: Shader 14 finished CTA #2 (29389,0), 4 CTAs running
GPGPU-Sim uArch: core: 14, cta: 2 initialized @(29390,0)
GPGPU-Sim uArch: cycles simulated: 29500  inst.: 9613897 (ipc=325.9) sim_rate=108021 (inst/sec) elapsed = 0:0:01:29 / Tue May 12 19:28:49 2015
GPGPU-Sim PTX: 9900000 instructions simulated : ctaid=(1,4,0) tid=(13,6,0)
GPGPU-Sim PTX: 10000000 instructions simulated : ctaid=(10,4,0) tid=(15,2,0)
GPGPU-Sim uArch: cycles simulated: 30000  inst.: 9776710 (ipc=325.9) sim_rate=107436 (inst/sec) elapsed = 0:0:01:31 / Tue May 12 19:28:51 2015
GPGPU-Sim uArch: Shader 6 finished CTA #2 (30023,0), 4 CTAs running
GPGPU-Sim uArch: core:  6, cta: 2 initialized @(30024,0)
GPGPU-Sim uArch: Shader 8 finished CTA #2 (30176,0), 4 CTAs running
GPGPU-Sim uArch: core:  8, cta: 2 initialized @(30177,0)
GPGPU-Sim PTX: 10100000 instructions simulated : ctaid=(11,1,0) tid=(8,1,0)
GPGPU-Sim PTX: 10200000 instructions simulated : ctaid=(7,2,0) tid=(6,2,0)
GPGPU-Sim uArch: cycles simulated: 30500  inst.: 9934767 (ipc=325.7) sim_rate=106825 (inst/sec) elapsed = 0:0:01:33 / Tue May 12 19:28:53 2015
GPGPU-Sim uArch: Shader 7 finished CTA #2 (30733,0), 4 CTAs running
GPGPU-Sim uArch: core:  7, cta: 2 initialized @(30734,0)
GPGPU-Sim PTX: 10300000 instructions simulated : ctaid=(15,4,0) tid=(13,1,0)
GPGPU-Sim uArch: Shader 3 finished CTA #3 (30785,0), 4 CTAs running
GPGPU-Sim uArch: core:  3, cta: 3 initialized @(30786,0)
GPGPU-Sim uArch: cycles simulated: 31000  inst.: 10099647 (ipc=325.8) sim_rate=106312 (inst/sec) elapsed = 0:0:01:35 / Tue May 12 19:28:55 2015
GPGPU-Sim PTX: 10400000 instructions simulated : ctaid=(5,5,0) tid=(6,7,0)
GPGPU-Sim PTX: 10500000 instructions simulated : ctaid=(8,2,0) tid=(10,7,0)
GPGPU-Sim uArch: Shader 1 finished CTA #3 (31475,0), 4 CTAs running
GPGPU-Sim uArch: core:  1, cta: 3 initialized @(31476,0)
GPGPU-Sim uArch: cycles simulated: 31500  inst.: 10257988 (ipc=325.7) sim_rate=104673 (inst/sec) elapsed = 0:0:01:38 / Tue May 12 19:28:58 2015
GPGPU-Sim PTX: 10600000 instructions simulated : ctaid=(6,4,0) tid=(9,0,0)
GPGPU-Sim PTX: 10700000 instructions simulated : ctaid=(10,5,0) tid=(0,3,0)
GPGPU-Sim uArch: cycles simulated: 32000  inst.: 10423781 (ipc=325.7) sim_rate=104237 (inst/sec) elapsed = 0:0:01:40 / Tue May 12 19:29:00 2015
GPGPU-Sim PTX: 10800000 instructions simulated : ctaid=(10,4,0) tid=(15,7,0)
GPGPU-Sim uArch: cycles simulated: 32500  inst.: 10589732 (ipc=325.8) sim_rate=104848 (inst/sec) elapsed = 0:0:01:41 / Tue May 12 19:29:01 2015
GPGPU-Sim PTX: 10900000 instructions simulated : ctaid=(9,4,0) tid=(13,7,0)
GPGPU-Sim uArch: Shader 4 finished CTA #3 (32740,0), 4 CTAs running
GPGPU-Sim uArch: core:  4, cta: 3 initialized @(32741,0)
GPGPU-Sim PTX: 11000000 instructions simulated : ctaid=(13,4,0) tid=(15,1,0)
GPGPU-Sim uArch: Shader 2 finished CTA #3 (32956,0), 4 CTAs running
GPGPU-Sim uArch: core:  2, cta: 3 initialized @(32957,0)
GPGPU-Sim uArch: cycles simulated: 33000  inst.: 10750038 (ipc=325.8) sim_rate=104369 (inst/sec) elapsed = 0:0:01:43 / Tue May 12 19:29:03 2015
GPGPU-Sim PTX: 11100000 instructions simulated : ctaid=(6,0,0) tid=(5,3,0)
GPGPU-Sim PTX: 11200000 instructions simulated : ctaid=(1,3,0) tid=(11,7,0)
GPGPU-Sim uArch: cycles simulated: 33500  inst.: 10909272 (ipc=325.6) sim_rate=104896 (inst/sec) elapsed = 0:0:01:44 / Tue May 12 19:29:04 2015
GPGPU-Sim uArch: Shader 0 finished CTA #3 (33548,0), 4 CTAs running
GPGPU-Sim uArch: core:  0, cta: 3 initialized @(33549,0)
GPGPU-Sim PTX: 11300000 instructions simulated : ctaid=(9,1,0) tid=(10,5,0)
GPGPU-Sim uArch: cycles simulated: 34000  inst.: 11079468 (ipc=325.9) sim_rate=104523 (inst/sec) elapsed = 0:0:01:46 / Tue May 12 19:29:06 2015
GPGPU-Sim PTX: 11400000 instructions simulated : ctaid=(9,3,0) tid=(15,0,0)
GPGPU-Sim PTX: 11500000 instructions simulated : ctaid=(11,5,0) tid=(7,0,0)
GPGPU-Sim uArch: cycles simulated: 34500  inst.: 11247134 (ipc=326.0) sim_rate=104140 (inst/sec) elapsed = 0:0:01:48 / Tue May 12 19:29:08 2015
GPGPU-Sim PTX: 11600000 instructions simulated : ctaid=(6,4,0) tid=(15,1,0)
GPGPU-Sim PTX: 11700000 instructions simulated : ctaid=(13,3,0) tid=(1,6,0)
GPGPU-Sim uArch: cycles simulated: 35000  inst.: 11406578 (ipc=325.9) sim_rate=104647 (inst/sec) elapsed = 0:0:01:49 / Tue May 12 19:29:09 2015
GPGPU-Sim PTX: 11800000 instructions simulated : ctaid=(12,3,0) tid=(8,7,0)
GPGPU-Sim uArch: cycles simulated: 35500  inst.: 11572965 (ipc=326.0) sim_rate=104260 (inst/sec) elapsed = 0:0:01:51 / Tue May 12 19:29:11 2015
GPGPU-Sim uArch: Shader 0 finished CTA #4 (35538,0), 4 CTAs running
GPGPU-Sim uArch: core:  0, cta: 4 initialized @(35539,0)
GPGPU-Sim PTX: 11900000 instructions simulated : ctaid=(8,5,0) tid=(3,2,0)
GPGPU-Sim PTX: 12000000 instructions simulated : ctaid=(3,3,0) tid=(1,7,0)
GPGPU-Sim uArch: cycles simulated: 36000  inst.: 11732103 (ipc=325.9) sim_rate=104750 (inst/sec) elapsed = 0:0:01:52 / Tue May 12 19:29:12 2015
GPGPU-Sim PTX: 12100000 instructions simulated : ctaid=(11,5,0) tid=(15,5,0)
GPGPU-Sim uArch: Shader 5 finished CTA #3 (36395,0), 4 CTAs running
GPGPU-Sim uArch: core:  5, cta: 3 initialized @(36396,0)
GPGPU-Sim PTX: 12200000 instructions simulated : ctaid=(5,0,0) tid=(11,0,0)
GPGPU-Sim uArch: cycles simulated: 36500  inst.: 11891636 (ipc=325.8) sim_rate=104312 (inst/sec) elapsed = 0:0:01:54 / Tue May 12 19:29:14 2015
GPGPU-Sim PTX: 12300000 instructions simulated : ctaid=(12,0,0) tid=(3,5,0)
GPGPU-Sim uArch: cycles simulated: 37000  inst.: 12045195 (ipc=325.5) sim_rate=103837 (inst/sec) elapsed = 0:0:01:56 / Tue May 12 19:29:16 2015
GPGPU-Sim PTX: 12400000 instructions simulated : ctaid=(7,1,0) tid=(3,5,0)
GPGPU-Sim uArch: Shader 14 finished CTA #1 (37188,0), 4 CTAs running
GPGPU-Sim uArch: core: 14, cta: 1 initialized @(37189,0)
GPGPU-Sim uArch: Shader 13 finished CTA #0 (37300,0), 4 CTAs running
GPGPU-Sim uArch: core: 13, cta: 0 initialized @(37301,0)
GPGPU-Sim PTX: 12500000 instructions simulated : ctaid=(3,6,0) tid=(12,0,0)
GPGPU-Sim uArch: cycles simulated: 37500  inst.: 12208037 (ipc=325.5) sim_rate=104342 (inst/sec) elapsed = 0:0:01:57 / Tue May 12 19:29:17 2015
GPGPU-Sim uArch: Shader 4 finished CTA #0 (37606,0), 4 CTAs running
GPGPU-Sim uArch: core:  4, cta: 0 initialized @(37607,0)
GPGPU-Sim PTX: 12600000 instructions simulated : ctaid=(14,4,0) tid=(0,5,0)
GPGPU-Sim uArch: Shader 1 finished CTA #4 (37786,0), 4 CTAs running
GPGPU-Sim uArch: core:  1, cta: 4 initialized @(37787,0)
GPGPU-Sim PTX: 12700000 instructions simulated : ctaid=(3,5,0) tid=(11,2,0)
GPGPU-Sim uArch: cycles simulated: 38000  inst.: 12375251 (ipc=325.7) sim_rate=103993 (inst/sec) elapsed = 0:0:01:59 / Tue May 12 19:29:19 2015
GPGPU-Sim uArch: Shader 7 finished CTA #3 (38178,0), 4 CTAs running
GPGPU-Sim uArch: core:  7, cta: 3 initialized @(38179,0)
GPGPU-Sim uArch: Shader 8 finished CTA #3 (38237,0), 4 CTAs running
GPGPU-Sim uArch: core:  8, cta: 3 initialized @(38238,0)
GPGPU-Sim PTX: 12800000 instructions simulated : ctaid=(5,5,0) tid=(6,3,0)
GPGPU-Sim uArch: Shader 6 finished CTA #1 (38381,0), 4 CTAs running
GPGPU-Sim uArch: core:  6, cta: 1 initialized @(38382,0)
GPGPU-Sim uArch: cycles simulated: 38500  inst.: 12543226 (ipc=325.8) sim_rate=103663 (inst/sec) elapsed = 0:0:02:01 / Tue May 12 19:29:21 2015
GPGPU-Sim PTX: 12900000 instructions simulated : ctaid=(9,6,0) tid=(5,2,0)
GPGPU-Sim PTX: 13000000 instructions simulated : ctaid=(3,6,0) tid=(4,7,0)
GPGPU-Sim uArch: Shader 6 finished CTA #3 (38955,0), 4 CTAs running
GPGPU-Sim uArch: core:  6, cta: 3 initialized @(38956,0)
GPGPU-Sim uArch: cycles simulated: 39000  inst.: 12716465 (ipc=326.1) sim_rate=103385 (inst/sec) elapsed = 0:0:02:03 / Tue May 12 19:29:23 2015
GPGPU-Sim uArch: Shader 3 finished CTA #0 (39083,0), 4 CTAs running
GPGPU-Sim uArch: core:  3, cta: 0 initialized @(39084,0)
GPGPU-Sim PTX: 13100000 instructions simulated : ctaid=(12,4,0) tid=(4,4,0)
GPGPU-Sim uArch: Shader 3 finished CTA #4 (39317,0), 4 CTAs running
GPGPU-Sim uArch: core:  3, cta: 4 initialized @(39318,0)
GPGPU-Sim PTX: 13200000 instructions simulated : ctaid=(14,5,0) tid=(8,0,0)
GPGPU-Sim uArch: cycles simulated: 39500  inst.: 12872512 (ipc=325.9) sim_rate=103810 (inst/sec) elapsed = 0:0:02:04 / Tue May 12 19:29:24 2015
GPGPU-Sim uArch: Shader 9 finished CTA #3 (39681,0), 4 CTAs running
GPGPU-Sim uArch: core:  9, cta: 3 initialized @(39682,0)
GPGPU-Sim PTX: 13300000 instructions simulated : ctaid=(11,4,0) tid=(14,4,0)
GPGPU-Sim uArch: cycles simulated: 40000  inst.: 13017868 (ipc=325.4) sim_rate=103316 (inst/sec) elapsed = 0:0:02:06 / Tue May 12 19:29:26 2015
GPGPU-Sim PTX: 13400000 instructions simulated : ctaid=(4,0,0) tid=(8,7,0)
GPGPU-Sim PTX: 13500000 instructions simulated : ctaid=(14,6,0) tid=(5,4,0)
GPGPU-Sim uArch: cycles simulated: 40500  inst.: 13166966 (ipc=325.1) sim_rate=102069 (inst/sec) elapsed = 0:0:02:09 / Tue May 12 19:29:29 2015
GPGPU-Sim PTX: 13600000 instructions simulated : ctaid=(11,5,0) tid=(13,4,0)
GPGPU-Sim uArch: Shader 14 finished CTA #3 (40965,0), 4 CTAs running
GPGPU-Sim uArch: core: 14, cta: 3 initialized @(40966,0)
GPGPU-Sim uArch: cycles simulated: 41000  inst.: 13322200 (ipc=324.9) sim_rate=102478 (inst/sec) elapsed = 0:0:02:10 / Tue May 12 19:29:30 2015
GPGPU-Sim PTX: 13700000 instructions simulated : ctaid=(8,5,0) tid=(2,2,0)
GPGPU-Sim uArch: Shader 5 finished CTA #1 (41185,0), 4 CTAs running
GPGPU-Sim uArch: core:  5, cta: 1 initialized @(41186,0)
GPGPU-Sim PTX: 13800000 instructions simulated : ctaid=(0,5,0) tid=(4,0,0)
GPGPU-Sim uArch: cycles simulated: 41500  inst.: 13480123 (ipc=324.8) sim_rate=102122 (inst/sec) elapsed = 0:0:02:12 / Tue May 12 19:29:32 2015
GPGPU-Sim PTX: 13900000 instructions simulated : ctaid=(10,5,0) tid=(5,4,0)
GPGPU-Sim uArch: Shader 2 finished CTA #4 (41755,0), 4 CTAs running
[...]
maxmrqlatency = 670 
maxdqlatency = 0 
maxmflatency = 1962 
averagemflatency = 234 
max_icnt2mem_latency = 1359 
max_icnt2sh_latency = 203816 
mrq_lat_table:13540 	1722 	1163 	1909 	4844 	3214 	2807 	1688 	306 	14 	0 	0 	0 	0 	0 	0 	0 	0 	0 	0 	0 	0 	0 	0 	0 	0 	0 	0 	0 	0 	0 	0 	
dq_lat_table:0 	0 	0 	0 	0 	0 	0 	0 	0 	0 	0 	0 	0 	0 	0 	0 	0 	0 	0 	0 	0 	0 	0 	0 	0 	0 	0 	0 	0 	0 	0 	0 	
mf_lat_table:0 	0 	0 	0 	0 	0 	0 	51781 	7201 	3837 	982 	0 	0 	0 	0 	0 	0 	0 	0 	0 	0 	0 	0 	0 	0 	0 	0 	0 	0 	0 	0 	0 	
icnt2mem_lat_table:0 	0 	0 	48039 	20594 	13674 	11672 	1086 	1798 	551 	7 	0 	0 	0 	0 	0 	0 	0 	0 	0 	0 	0 	0 	0 	
icnt2sh_lat_table:0 	0 	0 	5828 	3833 	1217 	124 	0 	0 	204 	483 	1183 	2897 	3110 	4282 	7388 	15327 	17925 	0 	0 	0 	0 	0 	0 	
mf_lat_pw_table:0 	0 	0 	0 	0 	0 	0 	367 	5 	15 	3 	0 	0 	0 	0 	0 	0 	0 	0 	0 	0 	0 	0 	0 	0 	0 	0 	0 	0 	0 	0 	0 	
maximum concurrent accesses to same row:
dram[0]:        36        52        52        48        22        20        16        22        18        16        33        32        20        20        24        24 
dram[1]:        46        46        44        42        17        18        14        27        20        16        16        28        14        21        28        30 
dram[2]:        52        62        60        52        24        26        18        21        20        20        20        33        23        23        32        30 
dram[3]:        56        56        52        54        20        21        21        22        16        20        32        18        31        18        28        30 
dram[4]:        54        58        56        54        20        24        22        23        17        14        25        16        20        28        28        26 
dram[5]:        56        54        54        54        18        31        16        21        16        14        21        16        18        21        24        29 
maximum service time to same row:
dram[0]:     22983     21787     43287     26091     19648     43708     30464     19403     23616     24681     28508     26232     27744     29816     30722     27183 
dram[1]:     20075     24592     37046     28446     22680     43595     14023     28487     12465     25568     26814     35285     27275     23525     19025     38236 
dram[2]:     35937     21922     20485     40471     21093     30064     11777     29671     21203     33653     38514     38713     48884     29854     20444     28254 
dram[3]:     18087     22267     24928     23865     16825     14525     24319     17539     19710     37687     49843     51553     21484     29071     43907     32138 
dram[4]:     28384     45234     33565     26703     25040     35734     12075     15237     30521     35423     43679     14419     43639     23280     37365     18057 
dram[5]:     24507     44465     29494     23684     24263     54783     11406     14572     20688     35407     43694     30791     30262     31970     29865     42839 
average row accesses per activate:
dram[0]:  5.462963  5.562500  7.428571  5.509091  4.047059  4.000000  3.537634  3.119658  3.829787  4.012987  4.000000  3.741573  4.153846  5.500000  4.538462  4.400000 
dram[1]:  4.486486  4.758621  5.840909  6.023256  3.606061  3.600000  3.333333  3.285714  3.267176  3.712871  3.303030  4.273973  3.969388  3.857143  3.936709  5.686275 
dram[2]:  7.157895  5.446429  6.163265  7.384615  4.027397  4.058139  3.888889  3.752809  3.438095  3.594059  4.107143  4.281690  5.112903  4.701299  5.542373  5.000000 
dram[3]:  5.129630  4.672131  5.720930  5.773585  3.987013  3.181818  4.090909  3.504673  3.601942  3.810000  4.140845  3.490196  5.092308  3.712963  4.614035  4.890625 
dram[4]:  5.288136  5.450980  6.148936  6.428571  4.416667  4.285714  3.660000  3.130435  3.644231  3.731183  3.666667  3.333333  3.764706  4.025000  3.869565  4.260870 
dram[5]:  4.352941  5.755556  4.738461  5.811321  3.250000  3.391304  3.079365  3.540000  3.358333  3.764045  3.431373  3.410526  3.912088  3.797753  3.391752  4.546875 
average row locality = 31207/7591 = 4.111053
number of total memory accesses made:
dram[0]:         0         0         0         0         0         0         0         0         0         0         0         0         0         0         0         0 
dram[1]:         0         0         0         0         0         0         0         0         0         0         0         0         0         0         0         0 
dram[2]:         0         0         0         0         0         0         0         0         0         0         0         0         0         0         0         0 
dram[3]:         0         0         0         0         0         0         0         0         0         0         0         0         0         0         0         0 
dram[4]:         0         0         0         0         0         0         0         0         0         0         0         0         0         0         0         0 
dram[5]:         0         0         0         0         0         0         0         0         0         0         0         0         0         0         0         0 
total accesses: 0
min_bank_accesses = 0!
min_chip_accesses = 0!
number of total read accesses:
dram[0]:       131       113       113       128       141       120       136       149       149       130       135       145       160       143       133       136 
dram[1]:       146       118       110       112       151       125       146       138       173       155       140       132       167       151       138       129 
dram[2]:       119       135       132       122       125       140       158       138       149       151       147       129       141       156       145       129 
dram[3]:       122       123       107       128       127       144       128       153       150       153       126       149       146       172       119       141 
dram[4]:       131       119       126       136       130       135       149       148       155       143       124       144       166       142       117       133 
dram[5]:       125       113       133       130       147       128       160       142       163       135       142       136       153       148       146       131 
total reads: 13227
bank skew: 173/107 = 1.62
chip skew: 2232/2162 = 1.03
number of total write accesses:
dram[0]:       164       154       147       175       203       168       193       216       211       179       185       188       218       176       162       172 
dram[1]:       186       158       147       147       206       181       204       207       255       220       187       180       222       200       173       161 
dram[2]:       153       170       170       166       169       209       227       196       212       212       198       175       176       206       182       161 
dram[3]:       155       162       139       178       180       206       187       222       221       228       168       207       185       229       144       172 
dram[4]:       181       159       163       179       188       195       217       212       224       204       173       196       218       180       150       161 
dram[5]:       171       146       175       178       204       184       228       212       240       200       208       188       203       190       183       160 
total reads: 17980
bank skew: 255/139 = 1.83
chip skew: 3070/2911 = 1.05
average mf latency per bank:
dram[0]:        511       453       561       441       452       522       562       492       514       543       511       523       451       532       486       453
dram[1]:        451       454       517       528       429       454       498       477       396       438       485       524       426       453       430       464
dram[2]:        540       482       528       501       544       468       508       543       468       471       489       537       547       477       450       505
dram[3]:        489       510       565       462       482       418       553       445       423       429       538       436       483       395       522       437
dram[4]:        450       482       499       451       505       514       508       516       483       503       554       519       457       534       549       511
dram[5]:        433       466       459       438       413       444       435       454       410       466       433       478       434       440       406       459
maximum mf latency per bank:
dram[0]:       1310      1355      1495      1175      1530      1883      1672      1511      1689      1332      1460      1425      1609      1329      1433      1413
dram[1]:       1448      1193      1147      1166      1590      1174      1261      1257      1254      1104      1130      1118      1156      1122      1183      1114
dram[2]:       1288      1519      1649      1478      1839      1797      1887      1833      1624      1890      1962      1534      1546      1883      1683      1401
dram[3]:       1333      1274      1467      1547      1503      1284      1434      1299      1037      1175      1341       971      1019      1335      1039       925
dram[4]:       1308      1426      1458      1577      1662      1666      1741      1688      1563      1749      1501      1563      1593      1560      1504      1527
dram[5]:       1241      1258      1404      1458      1444      1435      1040      1328       984      1110       890       854      1149       879      1294      1224

Number of Memory Banks Accessed per Memory Operation per Warp (from 0):
0	0	0	0	0	0	0	0	0	0	0	0	0	0	0	0	0	0	0	0	0	0	0	0	0	0	0	0	0	0	0	0	0	0	0	0	0	0	0	0	0	0	0	0	0	0	0	0	0	0	0	0	0	0	0	0	0	0	0	0	0	0	0	0	0	0	0	0	0	0	0	0	0	0	0	0	0	0	0	0	0	0	0	0	0	0	0	0	0	0	0	0	0	0	0	0	
Average # of Memory Banks Accessed per Memory Operation per Warp=-nan

position of mrq chosen
0	0	0	0	0	0	0	0	0	0	0	0	0	0	0	0	

average position of mrq chosen = -nan
Memory Partition 0: 
Cache L2_bank_000:
MSHR contents

Cache L2_bank_001:
MSHR contents

In Dram Latency Queue (total = 0): 
DRAM[0]: 16 bks, busW=4 BL=8 CL=12, tRRD=2 tCCD=6, tRCD=12 tRAS=28 tRP=12 tRC=40
n_cmd=269038 n_nop=256944 n_act=1183 n_pre=1167 n_req=5073 n_rd=4324 n_write=5420 bw_util=0.07244
n_activity=53600 dram_eff=0.3636
bk0: 262a 260868i bk1: 226a 262053i bk2: 226a 262023i bk3: 256a 261151i bk4: 282a 258482i bk5: 240a 259547i bk6: 272a 258544i bk7: 298a 257556i bk8: 298a 258801i bk9: 260a 260253i bk10: 270a 259783i bk11: 290a 259108i bk12: 320a 258272i bk13: 286a 259764i bk14: 266a 260671i bk15: 272a 260455i 
dram_util_bins: 0 0 0 0 0 0 0 0 0 0
dram_eff_bins: 0 0 0 0 0 0 0 0 0 0
mrqq: max=16 avg=0.786577
Memory Partition 1: 
Cache L2_bank_002:
MSHR contents

Cache L2_bank_003:
MSHR contents

In Dram Latency Queue (total = 0): 
DRAM[1]: 16 bks, busW=4 BL=8 CL=12, tRRD=2 tCCD=6, tRCD=12 tRAS=28 tRP=12 tRC=40
n_cmd=269038 n_nop=256250 n_act=1336 n_pre=1320 n_req=5265 n_rd=4462 n_write=5670 bw_util=0.07532
n_activity=56930 dram_eff=0.3559
bk0: 292a 260701i bk1: 236a 261834i bk2: 220a 261970i bk3: 224a 261673i bk4: 302a 258102i bk5: 250a 258698i bk6: 292a 258272i bk7: 276a 258599i bk8: 346a 257551i bk9: 310a 258776i bk10: 280a 258959i bk11: 264a 259489i bk12: 334a 257894i bk13: 302a 258531i bk14: 276a 260185i bk15: 258a 261026i 
dram_util_bins: 0 0 0 0 0 0 0 0 0 0
dram_eff_bins: 0 0 0 0 0 0 0 0 0 0
mrqq: max=16 avg=0.703243
Memory Partition 2: 
Cache L2_bank_004:
MSHR contents

Cache L2_bank_005:
MSHR contents

In Dram Latency Queue (total = 0): 
DRAM[2]: 16 bks, busW=4 BL=8 CL=12, tRRD=2 tCCD=6, tRCD=12 tRAS=28 tRP=12 tRC=40
n_cmd=269038 n_nop=256773 n_act=1146 n_pre=1130 n_req=5198 n_rd=4432 n_write=5557 bw_util=0.07426
n_activity=54406 dram_eff=0.3672
bk0: 238a 262426i bk1: 270a 261132i bk2: 264a 261021i bk3: 244a 261473i bk4: 250a 260111i bk5: 280a 258641i bk6: 316a 257678i bk7: 276a 258594i bk8: 298a 259216i bk9: 302a 258750i bk10: 294a 259118i bk11: 258a 259794i bk12: 282a 260194i bk13: 312a 258473i bk14: 290a 259975i bk15: 258a 261030i 
dram_util_bins: 0 0 0 0 0 0 0 0 0 0
dram_eff_bins: 0 0 0 0 0 0 0 0 0 0
mrqq: max=16 avg=0.841086
Memory Partition 3: 
Cache L2_bank_006:
MSHR contents

Cache L2_bank_007:
MSHR contents

In Dram Latency Queue (total = 0): 
DRAM[3]: 16 bks, busW=4 BL=8 CL=12, tRRD=2 tCCD=6, tRCD=12 tRAS=28 tRP=12 tRC=40
n_cmd=269038 n_nop=256612 n_act=1252 n_pre=1236 n_req=5171 n_rd=4376 n_write=5562 bw_util=0.07388
n_activity=55746 dram_eff=0.3565
bk0: 244a 262141i bk1: 246a 261806i bk2: 214a 262157i bk3: 256a 261239i bk4: 254a 260371i bk5: 288a 258583i bk6: 256a 259518i bk7: 306a 258188i bk8: 300a 258973i bk9: 306a 258482i bk10: 252a 259926i bk11: 298a 259070i bk12: 292a 259493i bk13: 344a 257979i bk14: 238a 261763i bk15: 282a 260449i 
dram_util_bins: 0 0 0 0 0 0 0 0 0 0
dram_eff_bins: 0 0 0 0 0 0 0 0 0 0
mrqq: max=16 avg=0.719984
Memory Partition 4: 
Cache L2_bank_008:
MSHR contents

Cache L2_bank_009:
MSHR contents

In Dram Latency Queue (total = 0): 
DRAM[4]: 16 bks, busW=4 BL=8 CL=12, tRRD=2 tCCD=6, tRCD=12 tRAS=28 tRP=12 tRC=40
n_cmd=269038 n_nop=256524 n_act=1270 n_pre=1254 n_req=5198 n_rd=4396 n_write=5594 bw_util=0.07426
n_activity=55097 dram_eff=0.3626
bk0: 262a 261181i bk1: 238a 262207i bk2: 252a 261487i bk3: 272a 261141i bk4: 260a 259168i bk5: 270a 258532i bk6: 298a 258123i bk7: 296a 258135i bk8: 310a 258402i bk9: 286a 258902i bk10: 248a 259793i bk11: 288a 258681i bk12: 332a 258194i bk13: 284a 259211i bk14: 234a 260985i bk15: 266a 260577i 
dram_util_bins: 0 0 0 0 0 0 0 0 0 0
dram_eff_bins: 0 0 0 0 0 0 0 0 0 0
mrqq: max=16 avg=0.78338
Memory Partition 5: 
Cache L2_bank_010:
MSHR contents

Cache L2_bank_011:
MSHR contents

In Dram Latency Queue (total = 0): 
DRAM[5]: 16 bks, busW=4 BL=8 CL=12, tRRD=2 tCCD=6, tRCD=12 tRAS=28 tRP=12 tRC=40
n_cmd=269038 n_nop=256046 n_act=1404 n_pre=1388 n_req=5302 n_rd=4464 n_write=5736 bw_util=0.07583
n_activity=56489 dram_eff=0.3611
bk0: 250a 261330i bk1: 226a 261994i bk2: 266a 260634i bk3: 260a 261383i bk4: 294a 258250i bk5: 256a 258928i bk6: 320a 257378i bk7: 284a 258841i bk8: 326a 258036i bk9: 270a 259427i bk10: 284a 258597i bk11: 272a 258940i bk12: 306a 258441i bk13: 296a 258796i bk14: 292a 259141i bk15: 262a 260497i 
dram_util_bins: 0 0 0 0 0 0 0 0 0 0
dram_eff_bins: 0 0 0 0 0 0 0 0 0 0
mrqq: max=16 avg=0.695095

========= L2 cache stats =========
L2_cache_bank[0]: Access = 7938, Miss = 1098, Miss_rate = 0.138, Pending_hits = 43, Reservation_fails = 420
L2_cache_bank[1]: Access = 8193, Miss = 1064, Miss_rate = 0.130, Pending_hits = 41, Reservation_fails = 591
L2_cache_bank[2]: Access = 7574, Miss = 1171, Miss_rate = 0.155, Pending_hits = 44, Reservation_fails = 572
L2_cache_bank[3]: Access = 8061, Miss = 1060, Miss_rate = 0.131, Pending_hits = 40, Reservation_fails = 365
L2_cache_bank[4]: Access = 7609, Miss = 1116, Miss_rate = 0.147, Pending_hits = 40, Reservation_fails = 726
L2_cache_bank[5]: Access = 8167, Miss = 1100, Miss_rate = 0.135, Pending_hits = 45, Reservation_fails = 479
L2_cache_bank[6]: Access = 8278, Miss = 1025, Miss_rate = 0.124, Pending_hits = 34, Reservation_fails = 670
L2_cache_bank[7]: Access = 8791, Miss = 1163, Miss_rate = 0.132, Pending_hits = 41, Reservation_fails = 271
L2_cache_bank[8]: Access = 8390, Miss = 1098, Miss_rate = 0.131, Pending_hits = 51, Reservation_fails = 641
L2_cache_bank[9]: Access = 8067, Miss = 1100, Miss_rate = 0.136, Pending_hits = 35, Reservation_fails = 138
L2_cache_bank[10]: Access = 8199, Miss = 1169, Miss_rate = 0.143, Pending_hits = 44, Reservation_fails = 705
L2_cache_bank[11]: Access = 8154, Miss = 1063, Miss_rate = 0.130, Pending_hits = 32, Reservation_fails = 279
L2_total_cache_accesses = 97421
L2_total_cache_misses = 13227
L2_total_cache_miss_rate = 0.1358
L2_total_cache_pending_hits = 490
L2_total_cache_reservation_fails = 5857
L2_total_cache_breakdown:
	L2_cache_stats_breakdown[GLOBAL_ACC_R][HIT] = 3949
	L2_cache_stats_breakdown[GLOBAL_ACC_R][HIT_RESERVED] = 7
	L2_cache_stats_breakdown[GLOBAL_ACC_R][MISS] = 148
	L2_cache_stats_breakdown[GLOBAL_ACC_R][RESERVATION_FAIL] = 241
	L2_cache_stats_breakdown[LOCAL_ACC_R][HIT] = 6571
	L2_cache_stats_breakdown[LOCAL_ACC_R][HIT_RESERVED] = 47
	L2_cache_stats_breakdown[LOCAL_ACC_R][MISS] = 250
	L2_cache_stats_breakdown[CONST_ACC_R][HIT] = 22
	L2_cache_stats_breakdown[CONST_ACC_R][HIT_RESERVED] = 6
	L2_cache_stats_breakdown[CONST_ACC_R][MISS] = 2
	L2_cache_stats_breakdown[CONST_ACC_R][RESERVATION_FAIL] = 226
	L2_cache_stats_breakdown[GLOBAL_ACC_W][HIT] = 5852
	L2_cache_stats_breakdown[GLOBAL_ACC_W][HIT_RESERVED] = 292
	L2_cache_stats_breakdown[GLOBAL_ACC_W][MISS] = 2048
	L2_cache_stats_breakdown[GLOBAL_ACC_W][RESERVATION_FAIL] = 102
	L2_cache_stats_breakdown[LOCAL_ACC_W][HIT] = 35035
	L2_cache_stats_breakdown[LOCAL_ACC_W][HIT_RESERVED] = 11
	L2_cache_stats_breakdown[LOCAL_ACC_W][MISS] = 9561
	L2_cache_stats_breakdown[LOCAL_ACC_W][RESERVATION_FAIL] = 105
	L2_cache_stats_breakdown[L1_WRBK_ACC][HIT] = 3640
	L2_cache_stats_breakdown[L1_WRBK_ACC][MISS] = 1168
	L2_cache_stats_breakdown[INST_ACC_R][HIT] = 28635
	L2_cache_stats_breakdown[INST_ACC_R][HIT_RESERVED] = 127
	L2_cache_stats_breakdown[INST_ACC_R][MISS] = 50
	L2_cache_stats_breakdown[INST_ACC_R][RESERVATION_FAIL] = 5183
L2_cache_data_port_util = 0.131
L2_cache_fill_port_util = 0.022

icnt_total_pkts_mem_to_simt=251809
icnt_total_pkts_simt_to_mem=308298
LD_mem_lat_dist  0 0 0 0 0 0 0 0 0 0 0 0 0 0 0 0 0 0 0 0 0 0 0 0 0 0 0
ST_mem_lat_dist  0 0 0 0 0 0 0 0 0 0 0 0 0 0 0 0 0 0 0 0 0 0 0 0 0 0 0
----------------------------Interconnect-DETAILS--------------------------------
Class 0:
Packet latency average = 13.8217
	minimum = 6
	maximum = 867
Network latency average = 11.5953
	minimum = 6
	maximum = 844
Slowest packet = 738
Flit latency average = 10.351
	minimum = 6
	maximum = 840
Slowest flit = 3234
Fragmentation average = 0.0859057
	minimum = 0
	maximum = 599
Injected packet rate average = 0.0345324
	minimum = 0.0302232 (at node 3)
	maximum = 0.0409583 (at node 22)
Accepted packet rate average = 0.0345324
	minimum = 0.0288838 (at node 3)
	maximum = 0.0431318 (at node 22)
Injected flit rate average = 0.101781
	minimum = 0.0889867 (at node 17)
	maximum = 0.118969 (at node 22)
Accepted flit rate average= 0.101781
	minimum = 0.0787618 (at node 0)
	maximum = 0.129778 (at node 22)
Injected packet length average = 2.9474
Accepted packet length average = 2.9474
Total in-flight flits = 0 (0 measured)
====== Overall Traffic Statistics ======
====== Traffic class 0 ======
Packet latency average = 13.8217 (1 samples)
	minimum = 6 (1 samples)
	maximum = 867 (1 samples)
Network latency average = 11.5953 (1 samples)
	minimum = 6 (1 samples)
	maximum = 844 (1 samples)
Flit latency average = 10.351 (1 samples)
	minimum = 6 (1 samples)
	maximum = 840 (1 samples)
Fragmentation average = 0.0859057 (1 samples)
	minimum = 0 (1 samples)
	maximum = 599 (1 samples)
Injected packet rate average = 0.0345324 (1 samples)
	minimum = 0.0302232 (1 samples)
	maximum = 0.0409583 (1 samples)
Accepted packet rate average = 0.0345324 (1 samples)
	minimum = 0.0288838 (1 samples)
	maximum = 0.0431318 (1 samples)
Injected flit rate average = 0.101781 (1 samples)
	minimum = 0.0889867 (1 samples)
	maximum = 0.118969 (1 samples)
Accepted flit rate average = 0.101781 (1 samples)
	minimum = 0.0787618 (1 samples)
	maximum = 0.129778 (1 samples)
Injected packet size average = 2.9474 (1 samples)
Accepted packet size average = 2.9474 (1 samples)
Hops average = 1 (1 samples)
----------------------------END-of-Interconnect-DETAILS-------------------------


gpgpu_simulation_time = 0 days, 0 hrs, 10 min, 56 sec (656 sec)
gpgpu_simulation_rate = 95552 (inst/sec)
gpgpu_simulation_rate = 310 (cycle/sec)
GPGPU-Sim: synchronize waiting for inactive GPU simulation
GPGPU-Sim API: Stream Manager State
GPGPU-Sim: detected inactive GPU simulation thread

checksum=75ef40cb5b8e
Kernel Time: 655984.125000 
