

        *** GPGPU-Sim Simulator Version 3.2.2  [build 0] ***


GPGPU-Sim PTX: simulation mode 0 (can change with PTX_SIM_MODE_FUNC environment variable:
               1=functional simulation only, 0=detailed performance simulator)
GPGPU-Sim: Configuration options:

-network_mode                           1 # Interconnection network mode
-inter_config_file   config_fermi_islip.icnt # Interconnection network config file
-gpgpu_ptx_use_cuobjdump                    1 # Use cuobjdump to extract ptx and sass from binaries
-gpgpu_experimental_lib_support                    0 # Try to extract code from cuda libraries [Broken because of unknown cudaGetExportTable]
-gpgpu_ptx_convert_to_ptxplus                    0 # Convert SASS (native ISA) to ptxplus and run ptxplus
-gpgpu_ptx_force_max_capability                   20 # Force maximum compute capability
-gpgpu_ptx_inst_debug_to_file                    0 # Dump executed instructions' debug information to file
-gpgpu_ptx_inst_debug_file       inst_debug.txt # Executed instructions' debug output file
-gpgpu_ptx_inst_debug_thread_uid                    1 # Thread UID for executed instructions' debug output
-gpgpu_simd_model                       1 # 1 = post-dominator
-gpgpu_shader_core_pipeline              1536:32 # shader core pipeline config, i.e., {<nthread>:<warpsize>}
-gpgpu_tex_cache:l1  4:128:24,L:R:m:N:L,F:128:4,128:2 # per-shader L1 texture cache  (READ-ONLY) config  {<nsets>:<bsize>:<assoc>,<rep>:<wr>:<alloc>:<wr_alloc>,<mshr>:<N>:<merge>,<mq>:<rf>}
-gpgpu_const_cache:l1 64:64:2,L:R:f:N:L,A:2:32,4 # per-shader L1 constant memory cache  (READ-ONLY) config  {<nsets>:<bsize>:<assoc>,<rep>:<wr>:<alloc>:<wr_alloc>,<mshr>:<N>:<merge>,<mq>} 
-gpgpu_cache:il1     4:128:4,L:R:f:N:L,A:2:32,4 # shader L1 instruction cache config  {<nsets>:<bsize>:<assoc>,<rep>:<wr>:<alloc>:<wr_alloc>,<mshr>:<N>:<merge>,<mq>} 
-gpgpu_cache:dl1     32:128:4,L:L:m:N:H,A:32:8,8 # per-shader L1 data cache config  {<nsets>:<bsize>:<assoc>,<rep>:<wr>:<alloc>:<wr_alloc>,<mshr>:<N>:<merge>,<mq> | none}
-gpgpu_cache:dl1PrefL1                 none # per-shader L1 data cache config  {<nsets>:<bsize>:<assoc>,<rep>:<wr>:<alloc>:<wr_alloc>,<mshr>:<N>:<merge>,<mq> | none}
-gpgpu_cache:dl1PreShared                 none # per-shader L1 data cache config  {<nsets>:<bsize>:<assoc>,<rep>:<wr>:<alloc>:<wr_alloc>,<mshr>:<N>:<merge>,<mq> | none}
-gmem_skip_L1D                          0 # global memory access skip L1D cache (implements -Xptxas -dlcm=cg, default=no skip)
-gpgpu_perfect_mem                      0 # enable perfect memory mode (no cache miss)
-n_regfile_gating_group                    4 # group of lanes that should be read/written together)
-gpgpu_clock_gated_reg_file                    0 # enable clock gated reg file for power calculations
-gpgpu_clock_gated_lanes                    0 # enable clock gated lanes for power calculations
-gpgpu_shader_registers                32768 # Number of registers per shader core. Limits number of concurrent CTAs. (default 8192)
-gpgpu_shader_cta                       8 # Maximum number of concurrent CTAs in shader (default 8)
-gpgpu_num_cta_barriers                   16 # Maximum number of named barriers per CTA (default 16)
-gpgpu_n_clusters                      15 # number of processing clusters
-gpgpu_n_cores_per_cluster                    1 # number of simd cores per cluster
-gpgpu_n_cluster_ejection_buffer_size                    8 # number of packets in ejection buffer
-gpgpu_n_ldst_response_buffer_size                    2 # number of response packets in ld/st unit ejection buffer
-gpgpu_shmem_size                   16384 # Size of shared memory per shader core (default 16kB)
-gpgpu_shmem_size                   49152 # Size of shared memory per shader core (default 16kB)
-gpgpu_shmem_size_PrefL1                16384 # Size of shared memory per shader core (default 16kB)
-gpgpu_shmem_size_PrefShared                16384 # Size of shared memory per shader core (default 16kB)
-gpgpu_shmem_num_banks                   32 # Number of banks in the shared memory in each shader core (default 16)
-gpgpu_shmem_limited_broadcast                    0 # Limit shared memory to do one broadcast per cycle (default on)
-gpgpu_shmem_warp_parts                    1 # Number of portions a warp is divided into for shared memory bank conflict check 
-gpgpu_warpdistro_shader                   -1 # Specify which shader core to collect the warp size distribution from
-gpgpu_warp_issue_shader                    0 # Specify which shader core to collect the warp issue distribution from
-gpgpu_local_mem_map                    1 # Mapping from local memory space address to simulated GPU physical address space (default = enabled)
-gpgpu_num_reg_banks                   16 # Number of register banks (default = 8)
-gpgpu_reg_bank_use_warp_id                    0 # Use warp ID in mapping registers to banks (default = off)
-gpgpu_operand_collector_num_units_sp                    6 # number of collector units (default = 4)
-gpgpu_operand_collector_num_units_sfu                    8 # number of collector units (default = 4)
-gpgpu_operand_collector_num_units_mem                    2 # number of collector units (default = 2)
-gpgpu_operand_collector_num_units_gen                    0 # number of collector units (default = 0)
-gpgpu_operand_collector_num_in_ports_sp                    2 # number of collector unit in ports (default = 1)
-gpgpu_operand_collector_num_in_ports_sfu                    1 # number of collector unit in ports (default = 1)
-gpgpu_operand_collector_num_in_ports_mem                    1 # number of collector unit in ports (default = 1)
-gpgpu_operand_collector_num_in_ports_gen                    0 # number of collector unit in ports (default = 0)
-gpgpu_operand_collector_num_out_ports_sp                    2 # number of collector unit in ports (default = 1)
-gpgpu_operand_collector_num_out_ports_sfu                    1 # number of collector unit in ports (default = 1)
-gpgpu_operand_collector_num_out_ports_mem                    1 # number of collector unit in ports (default = 1)
-gpgpu_operand_collector_num_out_ports_gen                    0 # number of collector unit in ports (default = 0)
-gpgpu_coalesce_arch                   13 # Coalescing arch (default = 13, anything else is off for now)
-gpgpu_num_sched_per_core                    1 # Number of warp schedulers per core
-gpgpu_max_insn_issue_per_warp                    1 # Max number of instructions that can be issued per warp in one cycle by scheduler
-gpgpu_simt_core_sim_order                    1 # Select the simulation order of cores in a cluster (0=Fix, 1=Round-Robin)
-gpgpu_pipeline_widths        2,1,1,2,1,1,2 # Pipeline widths ID_OC_SP,ID_OC_SFU,ID_OC_MEM,OC_EX_SP,OC_EX_SFU,OC_EX_MEM,EX_WB
-gpgpu_num_sp_units                     2 # Number of SP units (default=1)
-gpgpu_num_sfu_units                    1 # Number of SF units (default=1)
-gpgpu_num_mem_units                    1 # Number if ldst units (default=1) WARNING: not hooked up to anything
-gpgpu_scheduler                      gto # Scheduler configuration: < lrr | gto | two_level_active > If two_level_active:<num_active_warps>:<inner_prioritization>:<outer_prioritization>For complete list of prioritization values see shader.h enum scheduler_prioritization_typeDefault: gto
-gpgpu_dram_scheduler                    1 # 0 = fifo, 1 = FR-FCFS (defaul)
-gpgpu_dram_partition_queues              8:8:8:8 # i2$:$2d:d2$:$2i
-l2_ideal                               0 # Use a ideal L2 cache that always hit
-gpgpu_cache:dl2     64:128:8,L:B:m:W:L,A:32:4,4:0,32 # unified banked L2 data cache config  {<nsets>:<bsize>:<assoc>,<rep>:<wr>:<alloc>:<wr_alloc>,<mshr>:<N>:<merge>,<mq>}
-gpgpu_cache:dl2_texture_only                    0 # L2 cache used for texture only
-gpgpu_n_mem                            6 # number of memory modules (e.g. memory controllers) in gpu
-gpgpu_n_sub_partition_per_mchannel                    2 # number of memory subpartition in each memory module
-gpgpu_n_mem_per_ctrlr                    2 # number of memory chips per memory controller
-gpgpu_memlatency_stat                   14 # track and display latency statistics 0x2 enables MC, 0x4 enables queue logs
-gpgpu_frfcfs_dram_sched_queue_size                   16 # 0 = unlimited (default); # entries per chip
-gpgpu_dram_return_queue_size                  116 # 0 = unlimited (default); # entries per chip
-gpgpu_dram_buswidth                    4 # default = 4 bytes (8 bytes per cycle at DDR)
-gpgpu_dram_burst_length                    8 # Burst length of each DRAM request (default = 4 data bus cycle)
-dram_data_command_freq_ratio                    4 # Frequency ratio between DRAM data bus and command bus (default = 2 times, i.e. DDR)
-gpgpu_dram_timing_opt nbk=16:CCD=2:RRD=6:RCD=12:RAS=28:RP=12:RC=40: CL=12:WL=4:CDLR=5:WR=12:nbkgrp=4:CCDL=3:RTPL=2 # DRAM timing parameters = {nbk:tCCD:tRRD:tRCD:tRAS:tRP:tRC:CL:WL:tCDLR:tWR:nbkgrp:tCCDL:tRTPL}
-rop_latency                          120 # ROP queue latency (default 85)
-dram_latency                         100 # DRAM latency (default 30)
-gpgpu_mem_addr_mapping dramid@8;00000000.00000000.00000000.00000000.0000RRRR.RRRRRRRR.BBBCCCCB.CCSSSSSS # mapping memory address to dram model {dramid@<start bit>;<memory address map>}
-gpgpu_mem_addr_test                    0 # run sweep test to check address mapping for aliased address
-gpgpu_mem_address_mask                    1 # 0 = old addressing mask, 1 = new addressing mask, 2 = new add. mask + flipped bank sel and chip sel bits
-gpuwattch_xml_file  gpuwattch_gtx480.xml # GPUWattch XML file
-power_simulation_enabled                    1 # Turn on power simulator (1=On, 0=Off)
-power_per_cycle_dump                    0 # Dump detailed power output each cycle
-power_trace_enabled                    0 # produce a file for the power trace (1=On, 0=Off)
-power_trace_zlevel                     6 # Compression level of the power trace output log (0=no comp, 9=highest)
-steady_power_levels_enabled                    0 # produce a file for the steady power levels (1=On, 0=Off)
-steady_state_definition                  8:4 # allowed deviation:number of samples
-gpgpu_max_cycle                        0 # terminates gpu simulation early (0 = no limit)
-gpgpu_max_insn                         0 # terminates gpu simulation early (0 = no limit)
-gpgpu_max_cta                          0 # terminates gpu simulation early (0 = no limit)
-gpgpu_runtime_stat                   500 # display runtime statistics such as dram utilization {<freq>:<flag>}
-liveness_message_freq                    1 # Minimum number of seconds between simulation liveness messages (0 = always print)
-gpgpu_flush_l1_cache                    0 # Flush L1 cache at the end of each kernel call
-gpgpu_flush_l2_cache                    0 # Flush L2 cache at the end of each kernel call
-gpgpu_deadlock_detect                    1 # Stop the simulation at deadlock (1=on (default), 0=off)
-gpgpu_ptx_instruction_classification                    0 # if enabled will classify ptx instruction types per kernel (Max 255 kernels now)
-gpgpu_ptx_sim_mode                     0 # Select between Performance (default) or Functional simulation (1)
-gpgpu_clock_domains 700.0:700.0:700.0:924.0 # Clock Domain Frequencies in MhZ {<Core Clock>:<ICNT Clock>:<L2 Clock>:<DRAM Clock>}
-gpgpu_max_concurrent_kernel                    8 # maximum kernels that can run concurrently on GPU
-gpgpu_cflog_interval                    0 # Interval between each snapshot in control flow logger
-visualizer_enabled                     0 # Turn on visualizer output (1=On, 0=Off)
-visualizer_outputfile                 NULL # Specifies the output log file for visualizer
-visualizer_zlevel                      6 # Compression level of the visualizer output log (0=no comp, 9=highest)
-trace_enabled                          0 # Turn on traces
-trace_components                    none # comma seperated list of traces to enable. Complete list found in trace_streams.tup. Default none
-trace_sampling_core                    0 # The core which is printed using CORE_DPRINTF. Default 0
-trace_sampling_memory_partition                   -1 # The memory partition which is printed using MEMPART_DPRINTF. Default -1 (i.e. all)
-enable_ptx_file_line_stats                    1 # Turn on PTX source line statistic profiling. (1 = On)
-ptx_line_stats_filename gpgpu_inst_stats.txt # Output file for PTX source line statistics.
-save_embedded_ptx                      0 # saves ptx files embedded in binary as <n>.ptx
-keep                                   0 # keep intermediate files created by GPGPU-Sim when interfacing with external programs
-gpgpu_ptx_save_converted_ptxplus                    0 # Saved converted ptxplus to a file
-ptx_opcode_latency_int         4,13,4,5,145 # Opcode latencies for integers <ADD,MAX,MUL,MAD,DIV>Default 1,1,19,25,145
-ptx_opcode_latency_fp          4,13,4,5,39 # Opcode latencies for single precision floating points <ADD,MAX,MUL,MAD,DIV>Default 1,1,1,1,30
-ptx_opcode_latency_dp         8,19,8,8,330 # Opcode latencies for double precision floating points <ADD,MAX,MUL,MAD,DIV>Default 8,8,8,8,335
-ptx_opcode_initiation_int            1,2,2,1,8 # Opcode initiation intervals for integers <ADD,MAX,MUL,MAD,DIV>Default 1,1,4,4,32
-ptx_opcode_initiation_fp            1,2,1,1,4 # Opcode initiation intervals for single precision floating points <ADD,MAX,MUL,MAD,DIV>Default 1,1,1,1,5
-ptx_opcode_initiation_dp         8,16,8,8,130 # Opcode initiation intervals for double precision floating points <ADD,MAX,MUL,MAD,DIV>Default 8,8,8,8,130
DRAM Timing Options:
nbk                                    16 # number of banks
CCD                                     2 # column to column delay
RRD                                     6 # minimal delay between activation of rows in different banks
RCD                                    12 # row to column delay
RAS                                    28 # time needed to activate row
RP                                     12 # time needed to precharge (deactivate) row
RC                                     40 # row cycle time
CDLR                                    5 # switching from write to read (changes tWTR)
WR                                     12 # last data-in to row precharge
CL                                     12 # CAS latency
WL                                      4 # Write latency
nbkgrp                                  4 # number of bank groups
CCDL                                    3 # column to column delay between accesses to different bank groups
RTPL                                    2 # read to precharge delay between accesses to different bank groups
Total number of memory sub partition = 12
addr_dec_mask[CHIP]  = 0000000000000000 	high:64 low:0
addr_dec_mask[BK]    = 000000000000e100 	high:16 low:8
addr_dec_mask[ROW]   = 000000000fff0000 	high:28 low:16
addr_dec_mask[COL]   = 0000000000001eff 	high:13 low:0
addr_dec_mask[BURST] = 000000000000003f 	high:6 low:0
sub_partition_id_mask = 0000000000000100
GPGPU-Sim uArch: clock freqs: 700000000.000000:700000000.000000:700000000.000000:924000000.000000
GPGPU-Sim uArch: clock periods: 0.00000000142857142857:0.00000000142857142857:0.00000000142857142857:0.00000000108225108225
*** Initializing Memory Statistics ***
GPGPU-Sim uArch: interconnect node map (shaderID+MemID to icntID)
GPGPU-Sim uArch: Memory nodes ID start from index: 15
GPGPU-Sim uArch:    0   1   2   3   4
GPGPU-Sim uArch:    5   6   7   8   9
GPGPU-Sim uArch:   10  11  12  13  14
GPGPU-Sim uArch:   15  16  17  18  19
GPGPU-Sim uArch:   20  21  22  23  24
GPGPU-Sim uArch:   25  26
GPGPU-Sim uArch: interconnect node reverse map (icntID to shaderID+MemID)
GPGPU-Sim uArch: Memory nodes start from ID: 15
GPGPU-Sim uArch:    0   1   2   3   4
GPGPU-Sim uArch:    5   6   7   8   9
GPGPU-Sim uArch:   10  11  12  13  14
GPGPU-Sim uArch:   15  16  17  18  19
GPGPU-Sim uArch:   20  21  22  23  24
GPGPU-Sim uArch:   25  26
62f7c84b053e7125f7dedfb6f8cd2ad7  /home/kishore/project_source/gpu_class_proj/gpgpusim-benchmarks-master/bin/release/RAY
GPGPU-Sim uArch: performance model initialization complete.
GPGPU-Sim PTX: __cudaRegisterFatBinary, fat_cubin_handle = 1, filename=rayTracing.cu
self exe links to: /home/kishore/project_source/gpu_class_proj/gpgpusim-benchmarks-master/bin/release/RAY
Running md5sum using "md5sum /home/kishore/project_source/gpu_class_proj/gpgpusim-benchmarks-master/bin/release/RAY "
Running cuobjdump using "$CUDA_INSTALL_PATH/bin/cuobjdump -ptx -elf -sass /home/kishore/project_source/gpu_class_proj/gpgpusim-benchmarks-master/bin/release/RAY > _cuobjdump_complete_output_fheeJT"
Parsing file _cuobjdump_complete_output_fheeJT
######### cuobjdump parser ########
## Adding new section PTX
Adding ptx filename: _cuobjdump_1.ptx
Adding arch: sm_10
Adding identifier: rayTracing.cu
## Adding new section ELF
Adding arch: sm_10
Adding identifier: rayTracing.cu
## Adding new section ELF
Adding arch: sm_20
Adding identifier: rayTracing.cu
## Adding new section PTX
Adding ptx filename: _cuobjdump_2.ptx
Adding arch: sm_20
Adding identifier: rayTracing.cu
Done parsing!!!
GPGPU-Sim PTX: __cudaRegisterFunction _Z6renderPjP4Nodejjff : hostFun 0x0x40a280, fat_cubin_handle = 1
GPGPU-Sim PTX: allocating stack frame region for .param "__cudaretf__Zmi6float3S_" from 0x0 to 0xc
GPGPU-Sim PTX: allocating stack frame region for .param "__cudaparmf1__Zmi6float3S_" from 0xc to 0x18
GPGPU-Sim PTX: allocating stack frame region for .param "__cudaparmf2__Zmi6float3S_" from 0x18 to 0x24
GPGPU-Sim PTX: allocating stack frame region for .param "__cudaretf__Z9normalize6float3" from 0x0 to 0xc
GPGPU-Sim PTX: allocating stack frame region for .param "__cudaparmf1__Z9normalize6float3" from 0xc to 0x18
GPGPU-Sim PTX: allocating stack frame region for .param "__cudaretf__Z18intersectionSphere5Rayon6float3f" from 0x0 to 0x4
GPGPU-Sim PTX: allocating stack frame region for .param "__cudaparmf1__Z18intersectionSphere5Rayon6float3f" from 0x4 to 0x1c
GPGPU-Sim PTX: allocating stack frame region for .param "__cudaparmf2__Z18intersectionSphere5Rayon6float3f" from 0x1c to 0x28
GPGPU-Sim PTX: allocating stack frame region for .param "__cudaparmf3__Z18intersectionSphere5Rayon6float3f" from 0x28 to 0x2c
GPGPU-Sim PTX: allocating stack frame region for .param "__cudaretf__Z16intersectionPlan5Rayon6float3S0_" from 0x0 to 0x4
GPGPU-Sim PTX: allocating stack frame region for .param "__cudaparmf1__Z16intersectionPlan5Rayon6float3S0_" from 0x4 to 0x1c
GPGPU-Sim PTX: allocating stack frame region for .param "__cudaparmf2__Z16intersectionPlan5Rayon6float3S0_" from 0x1c to 0x28
GPGPU-Sim PTX: allocating stack frame region for .param "__cudaparmf3__Z16intersectionPlan5Rayon6float3S0_" from 0x28 to 0x34
GPGPU-Sim PTX: allocating stack frame region for .param "__cudaretf__Z10getNormale6float3S_" from 0x0 to 0xc
GPGPU-Sim PTX: allocating stack frame region for .param "__cudaparmf1__Z10getNormale6float3S_" from 0xc to 0x18
GPGPU-Sim PTX: allocating stack frame region for .param "__cudaparmf2__Z10getNormale6float3S_" from 0x18 to 0x24
GPGPU-Sim PTX: allocating stack frame region for .param "__cudaretf__Z11getNormaleP6float3" from 0x0 to 0xc
GPGPU-Sim PTX: allocating stack frame region for .param "__cudaparmf1__Z11getNormaleP6float3" from 0xc to 0x18
GPGPU-Sim PTX: allocating stack frame region for .param "__cudaretf__Z14rgbaFloatToInt6float4" from 0x0 to 0x4
GPGPU-Sim PTX: allocating stack frame region for .param "__cudaparmf1__Z14rgbaFloatToInt6float4" from 0x4 to 0x14
GPGPU-Sim PTX: allocating stack frame region for .param "__cudaretf__Z12notShadowRayP4Node6float3S1_f" from 0x0 to 0x4
GPGPU-Sim PTX: allocating stack frame region for .param "__cudaparmf1__Z12notShadowRayP4Node6float3S1_f" from 0x4 to 0xc
GPGPU-Sim PTX: allocating stack frame region for .param "__cudaparmf2__Z12notShadowRayP4Node6float3S1_f" from 0xc to 0x18
GPGPU-Sim PTX: allocating stack frame region for .param "__cudaparmf3__Z12notShadowRayP4Node6float3S1_f" from 0x18 to 0x24
GPGPU-Sim PTX: allocating stack frame region for .param "__cudaparmf4__Z12notShadowRayP4Node6float3S1_f" from 0x24 to 0x28
GPGPU-Sim PTX: allocating stack frame region for .param "__cudaretf__Z15float2int_pow20f" from 0x0 to 0x4
GPGPU-Sim PTX: allocating stack frame region for .param "__cudaparmf1__Z15float2int_pow20f" from 0x4 to 0x8
GPGPU-Sim PTX: allocating stack frame region for .param "__cudaretf__Z15float2int_pow50f" from 0x0 to 0x4
GPGPU-Sim PTX: allocating stack frame region for .param "__cudaparmf1__Z15float2int_pow50f" from 0x4 to 0x8
GPGPU-Sim PTX: allocating stack frame region for .param "__cudaparmf1__ZN4dim3C1Ejjj" from 0x0 to 0x8
GPGPU-Sim PTX: allocating stack frame region for .param "__cudaparmf2__ZN4dim3C1Ejjj" from 0x8 to 0xc
GPGPU-Sim PTX: allocating stack frame region for .param "__cudaparmf3__ZN4dim3C1Ejjj" from 0xc to 0x10
GPGPU-Sim PTX: allocating stack frame region for .param "__cudaparmf4__ZN4dim3C1Ejjj" from 0x10 to 0x14
GPGPU-Sim PTX: instruction assembly for function '_Zmi6float3S_'...   done.
GPGPU-Sim PTX: finding reconvergence points for '_Zmi6float3S_'...
GPGPU-Sim PTX: Finding dominators for '_Zmi6float3S_'...
GPGPU-Sim PTX: Finding immediate dominators for '_Zmi6float3S_'...
GPGPU-Sim PTX: Finding postdominators for '_Zmi6float3S_'...
GPGPU-Sim PTX: Finding immediate postdominators for '_Zmi6float3S_'...
GPGPU-Sim PTX: pre-decoding instructions for '_Zmi6float3S_'...
GPGPU-Sim PTX: reconvergence points for _Zmi6float3S_...
GPGPU-Sim PTX: ... end of reconvergence points for _Zmi6float3S_
GPGPU-Sim PTX: ... done pre-decoding instructions for '_Zmi6float3S_'.
GPGPU-Sim PTX: instruction assembly for function '_Z9normalize6float3'...   done.
GPGPU-Sim PTX: finding reconvergence points for '_Z9normalize6float3'...
GPGPU-Sim PTX: Finding dominators for '_Z9normalize6float3'...
GPGPU-Sim PTX: Finding immediate dominators for '_Z9normalize6float3'...
GPGPU-Sim PTX: Finding postdominators for '_Z9normalize6float3'...
GPGPU-Sim PTX: Finding immediate postdominators for '_Z9normalize6float3'...
GPGPU-Sim PTX: pre-decoding instructions for '_Z9normalize6float3'...
GPGPU-Sim PTX: reconvergence points for _Z9normalize6float3...
GPGPU-Sim PTX: ... end of reconvergence points for _Z9normalize6float3
GPGPU-Sim PTX: ... done pre-decoding instructions for '_Z9normalize6float3'.
GPGPU-Sim PTX: instruction assembly for function '_Z18intersectionSphere5Rayon6float3f'...   done.
GPGPU-Sim PTX: finding reconvergence points for '_Z18intersectionSphere5Rayon6float3f'...
GPGPU-Sim PTX: Finding dominators for '_Z18intersectionSphere5Rayon6float3f'...
GPGPU-Sim PTX: Finding immediate dominators for '_Z18intersectionSphere5Rayon6float3f'...
GPGPU-Sim PTX: Finding postdominators for '_Z18intersectionSphere5Rayon6float3f'...
GPGPU-Sim PTX: Finding immediate postdominators for '_Z18intersectionSphere5Rayon6float3f'...
GPGPU-Sim PTX: pre-decoding instructions for '_Z18intersectionSphere5Rayon6float3f'...
GPGPU-Sim PTX: reconvergence points for _Z18intersectionSphere5Rayon6float3f...
GPGPU-Sim PTX:  1 (potential) branch divergence @  PC=0x250 (_1.ptx:173) @%p2 bra $Lt_2_3074;
GPGPU-Sim PTX:    immediate post dominator      @  PC=0x2c0 (_1.ptx:193) mov.f32 %f39, %f32;
GPGPU-Sim PTX:  2 (potential) branch divergence @  PC=0x260 (_1.ptx:175) bra.uni $Lt_2_2818;
GPGPU-Sim PTX:    immediate post dominator      @  PC=0x2c0 (_1.ptx:193) mov.f32 %f39, %f32;
GPGPU-Sim PTX:  3 (potential) branch divergence @  PC=0x280 (_1.ptx:180) @!%p3 bra $Lt_2_3586;
GPGPU-Sim PTX:    immediate post dominator      @  PC=0x2c0 (_1.ptx:193) mov.f32 %f39, %f32;
GPGPU-Sim PTX:  4 (potential) branch divergence @  PC=0x290 (_1.ptx:182) bra.uni $Lt_2_3330;
GPGPU-Sim PTX:    immediate post dominator      @  PC=0x2c0 (_1.ptx:193) mov.f32 %f39, %f32;
GPGPU-Sim PTX: ... end of reconvergence points for _Z18intersectionSphere5Rayon6float3f
GPGPU-Sim PTX: ... done pre-decoding instructions for '_Z18intersectionSphere5Rayon6float3f'.
GPGPU-Sim PTX: instruction assembly for function '_Z16intersectionPlan5Rayon6float3S0_'...   done.
GPGPU-Sim PTX: finding reconvergence points for '_Z16intersectionPlan5Rayon6float3S0_'...
GPGPU-Sim PTX: Finding dominators for '_Z16intersectionPlan5Rayon6float3S0_'...
GPGPU-Sim PTX: Finding immediate dominators for '_Z16intersectionPlan5Rayon6float3S0_'...
GPGPU-Sim PTX: Finding postdominators for '_Z16intersectionPlan5Rayon6float3S0_'...
GPGPU-Sim PTX: Finding immediate postdominators for '_Z16intersectionPlan5Rayon6float3S0_'...
GPGPU-Sim PTX: pre-decoding instructions for '_Z16intersectionPlan5Rayon6float3S0_'...
GPGPU-Sim PTX: reconvergence points for _Z16intersectionPlan5Rayon6float3S0_...
GPGPU-Sim PTX:  1 (potential) branch divergence @  PC=0x320 (_1.ptx:214) @!%p1 bra $Lt_3_2050;
GPGPU-Sim PTX:    immediate post dominator      @  PC=0x368 (_1.ptx:227) mov.f32 %f14, %f9;
GPGPU-Sim PTX:  2 (potential) branch divergence @  PC=0x330 (_1.ptx:216) bra.uni $Lt_3_1794;
GPGPU-Sim PTX:    immediate post dominator      @  PC=0x368 (_1.ptx:227) mov.f32 %f14, %f9;
GPGPU-Sim PTX: ... end of reconvergence points for _Z16intersectionPlan5Rayon6float3S0_
GPGPU-Sim PTX: ... done pre-decoding instructions for '_Z16intersectionPlan5Rayon6float3S0_'.
GPGPU-Sim PTX: instruction assembly for function '_Z10getNormale6float3S_'...   done.
GPGPU-Sim PTX: finding reconvergence points for '_Z10getNormale6float3S_'...
GPGPU-Sim PTX: Finding dominators for '_Z10getNormale6float3S_'...
GPGPU-Sim PTX: Finding immediate dominators for '_Z10getNormale6float3S_'...
GPGPU-Sim PTX: Finding postdominators for '_Z10getNormale6float3S_'...
GPGPU-Sim PTX: Finding immediate postdominators for '_Z10getNormale6float3S_'...
GPGPU-Sim PTX: pre-decoding instructions for '_Z10getNormale6float3S_'...
GPGPU-Sim PTX: reconvergence points for _Z10getNormale6float3S_...
GPGPU-Sim PTX: ... end of reconvergence points for _Z10getNormale6float3S_
GPGPU-Sim PTX: ... done pre-decoding instructions for '_Z10getNormale6float3S_'.
GPGPU-Sim PTX: instruction assembly for function '_Z11getNormaleP6float3'...   done.
GPGPU-Sim PTX: finding reconvergence points for '_Z11getNormaleP6float3'...
GPGPU-Sim PTX: Finding dominators for '_Z11getNormaleP6float3'...
GPGPU-Sim PTX: Finding immediate dominators for '_Z11getNormaleP6float3'...
GPGPU-Sim PTX: Finding postdominators for '_Z11getNormaleP6float3'...
GPGPU-Sim PTX: Finding immediate postdominators for '_Z11getNormaleP6float3'...
GPGPU-Sim PTX: pre-decoding instructions for '_Z11getNormaleP6float3'...
GPGPU-Sim PTX: reconvergence points for _Z11getNormaleP6float3...
GPGPU-Sim PTX: ... end of reconvergence points for _Z11getNormaleP6float3
GPGPU-Sim PTX: ... done pre-decoding instructions for '_Z11getNormaleP6float3'.
GPGPU-Sim PTX: instruction assembly for function '_Z14rgbaFloatToInt6float4'...   done.
GPGPU-Sim PTX: finding reconvergence points for '_Z14rgbaFloatToInt6float4'...
GPGPU-Sim PTX: Finding dominators for '_Z14rgbaFloatToInt6float4'...
GPGPU-Sim PTX: Finding immediate dominators for '_Z14rgbaFloatToInt6float4'...
GPGPU-Sim PTX: Finding postdominators for '_Z14rgbaFloatToInt6float4'...
GPGPU-Sim PTX: Finding immediate postdominators for '_Z14rgbaFloatToInt6float4'...
GPGPU-Sim PTX: pre-decoding instructions for '_Z14rgbaFloatToInt6float4'...
GPGPU-Sim PTX: reconvergence points for _Z14rgbaFloatToInt6float4...
GPGPU-Sim PTX: ... end of reconvergence points for _Z14rgbaFloatToInt6float4
GPGPU-Sim PTX: ... done pre-decoding instructions for '_Z14rgbaFloatToInt6float4'.
GPGPU-Sim PTX: allocating global region for "cnode" from 0x100 to 0x1a0 (global memory space)
GPGPU-Sim PTX: instruction assembly for function '_Z12notShadowRayP4Node6float3S1_f'...   done.
GPGPU-Sim PTX: finding reconvergence points for '_Z12notShadowRayP4Node6float3S1_f'...
GPGPU-Sim PTX: Finding dominators for '_Z12notShadowRayP4Node6float3S1_f'...
GPGPU-Sim PTX: Finding immediate dominators for '_Z12notShadowRayP4Node6float3S1_f'...
GPGPU-Sim PTX: Finding postdominators for '_Z12notShadowRayP4Node6float3S1_f'...
GPGPU-Sim PTX: Finding immediate postdominators for '_Z12notShadowRayP4Node6float3S1_f'...
GPGPU-Sim PTX: pre-decoding instructions for '_Z12notShadowRayP4Node6float3S1_f'...
GPGPU-Sim PTX: reconvergence points for _Z12notShadowRayP4Node6float3S1_f...
GPGPU-Sim PTX:  1 (potential) branch divergence @  PC=0x638 (_1.ptx:364) @%p1 bra $Lt_7_8450;
GPGPU-Sim PTX:    immediate post dominator      @  PC=0x828 (_1.ptx:441) mov.f32 %f58, 0f00000000;    // 0
GPGPU-Sim PTX:  2 (potential) branch divergence @  PC=0x658 (_1.ptx:369) @!%p2 bra $Lt_7_8962;
GPGPU-Sim PTX:    immediate post dominator      @  PC=0x6b8 (_1.ptx:385) mov.f32 %f28, %f20;
GPGPU-Sim PTX:  3 (potential) branch divergence @  PC=0x668 (_1.ptx:371) bra.uni $Lt_7_8706;
GPGPU-Sim PTX:    immediate post dominator      @  PC=0x6b8 (_1.ptx:385) mov.f32 %f28, %f20;
GPGPU-Sim PTX:  4 (potential) branch divergence @  PC=0x6c0 (_1.ptx:386) bra.uni $Lt_7_8194;
GPGPU-Sim PTX:    immediate post dominator      @  PC=0x828 (_1.ptx:441) mov.f32 %f58, 0f00000000;    // 0
GPGPU-Sim PTX:  5 (potential) branch divergence @  PC=0x7b0 (_1.ptx:418) @%p5 bra $Lt_7_9474;
GPGPU-Sim PTX:    immediate post dominator      @  PC=0x820 (_1.ptx:438) mov.f32 %f28, %f51;
GPGPU-Sim PTX:  6 (potential) branch divergence @  PC=0x7c0 (_1.ptx:420) bra.uni $Lt_7_9730;
GPGPU-Sim PTX:    immediate post dominator      @  PC=0x820 (_1.ptx:438) mov.f32 %f28, %f51;
GPGPU-Sim PTX:  7 (potential) branch divergence @  PC=0x7e0 (_1.ptx:425) @!%p6 bra $Lt_7_9986;
GPGPU-Sim PTX:    immediate post dominator      @  PC=0x820 (_1.ptx:438) mov.f32 %f28, %f51;
GPGPU-Sim PTX:  8 (potential) branch divergence @  PC=0x7f0 (_1.ptx:427) bra.uni $Lt_7_9730;
GPGPU-Sim PTX:    immediate post dominator      @  PC=0x820 (_1.ptx:438) mov.f32 %f28, %f51;
GPGPU-Sim PTX:  9 (potential) branch divergence @  PC=0x838 (_1.ptx:443) @!%p7 bra $Lt_7_10242;
GPGPU-Sim PTX:    immediate post dominator      @  PC=0x8e8 (_1.ptx:468) add.s32 %r1, %r1, 1;
GPGPU-Sim PTX: 10 (potential) branch divergence @  PC=0x8d8 (_1.ptx:463) @!%p8 bra $Lt_7_10242;
GPGPU-Sim PTX:    immediate post dominator      @  PC=0x8e8 (_1.ptx:468) add.s32 %r1, %r1, 1;
GPGPU-Sim PTX: 11 (potential) branch divergence @  PC=0x908 (_1.ptx:472) @%p9 bra $Lt_7_10754;
GPGPU-Sim PTX:    immediate post dominator      @  PC=0x960 (_1.ptx:486) selp.s32 %r10, 1, 0, %p11;
GPGPU-Sim PTX: 12 (potential) branch divergence @  PC=0x930 (_1.ptx:477) @%p10 bra $L_7_7170;
GPGPU-Sim PTX:    immediate post dominator      @  PC=0x960 (_1.ptx:486) selp.s32 %r10, 1, 0, %p11;
GPGPU-Sim PTX: 13 (potential) branch divergence @  PC=0x938 (_1.ptx:478) bra.uni $L_7_7938;
GPGPU-Sim PTX:    immediate post dominator      @  PC=0x960 (_1.ptx:486) selp.s32 %r10, 1, 0, %p11;
GPGPU-Sim PTX: ... end of reconvergence points for _Z12notShadowRayP4Node6float3S1_f
GPGPU-Sim PTX: ... done pre-decoding instructions for '_Z12notShadowRayP4Node6float3S1_f'.
GPGPU-Sim PTX: instruction assembly for function '_Z15float2int_pow20f'...   done.
GPGPU-Sim PTX: finding reconvergence points for '_Z15float2int_pow20f'...
GPGPU-Sim PTX: Finding dominators for '_Z15float2int_pow20f'...
GPGPU-Sim PTX: Finding immediate dominators for '_Z15float2int_pow20f'...
GPGPU-Sim PTX: Finding postdominators for '_Z15float2int_pow20f'...
GPGPU-Sim PTX: Finding immediate postdominators for '_Z15float2int_pow20f'...
GPGPU-Sim PTX: pre-decoding instructions for '_Z15float2int_pow20f'...
GPGPU-Sim PTX: reconvergence points for _Z15float2int_pow20f...
GPGPU-Sim PTX: ... end of reconvergence points for _Z15float2int_pow20f
GPGPU-Sim PTX: ... done pre-decoding instructions for '_Z15float2int_pow20f'.
GPGPU-Sim PTX: instruction assembly for function '_Z15float2int_pow50f'...   done.
GPGPU-Sim PTX: finding reconvergence points for '_Z15float2int_pow50f'...
GPGPU-Sim PTX: Finding dominators for '_Z15float2int_pow50f'...
GPGPU-Sim PTX: Finding immediate dominators for '_Z15float2int_pow50f'...
GPGPU-Sim PTX: Finding postdominators for '_Z15float2int_pow50f'...
GPGPU-Sim PTX: Finding immediate postdominators for '_Z15float2int_pow50f'...
GPGPU-Sim PTX: pre-decoding instructions for '_Z15float2int_pow50f'...
GPGPU-Sim PTX: reconvergence points for _Z15float2int_pow50f...
GPGPU-Sim PTX: ... end of reconvergence points for _Z15float2int_pow50f
GPGPU-Sim PTX: ... done pre-decoding instructions for '_Z15float2int_pow50f'.
GPGPU-Sim PTX: allocating constant region for "MView" from 0x200 to 0x230 (global memory space) 1
GPGPU-Sim PTX: allocating stack frame region for .local "__cuda___cuda_local_var_36873_9_non_const_pile_32240" from 0x0 to 0x50
GPGPU-Sim PTX: instruction assembly for function '_Z6renderPjP4Nodejjff'...   done.
GPGPU-Sim PTX: finding reconvergence points for '_Z6renderPjP4Nodejjff'...
GPGPU-Sim PTX: Finding dominators for '_Z6renderPjP4Nodejjff'...
GPGPU-Sim PTX: Finding immediate dominators for '_Z6renderPjP4Nodejjff'...
GPGPU-Sim PTX: Finding postdominators for '_Z6renderPjP4Nodejjff'...
GPGPU-Sim PTX: Finding immediate postdominators for '_Z6renderPjP4Nodejjff'...
GPGPU-Sim PTX: pre-decoding instructions for '_Z6renderPjP4Nodejjff'...
GPGPU-Sim PTX: reconvergence points for _Z6renderPjP4Nodejjff...
GPGPU-Sim PTX:  1 (potential) branch divergence @  PC=0xdb0 (_1.ptx:663) @%p1 bra $Lt_10_44034;
GPGPU-Sim PTX:    immediate post dominator      @  PC=0x2370 (_1.ptx:1495) exit;
GPGPU-Sim PTX:  2 (potential) branch divergence @  PC=0x1028 (_1.ptx:751) @%p2 bra $Lt_10_45570;
GPGPU-Sim PTX:    immediate post dominator      @  PC=0x11b8 (_1.ptx:815) mov.f32 %f108, 0f00000000;   // 0
GPGPU-Sim PTX:  3 (potential) branch divergence @  PC=0x1048 (_1.ptx:756) @!%p3 bra $Lt_10_46082;
GPGPU-Sim PTX:    immediate post dominator      @  PC=0x1090 (_1.ptx:769) mov.f32 %f87, %f82;
GPGPU-Sim PTX:  4 (potential) branch divergence @  PC=0x1058 (_1.ptx:758) bra.uni $Lt_10_45826;
GPGPU-Sim PTX:    immediate post dominator      @  PC=0x1090 (_1.ptx:769) mov.f32 %f87, %f82;
GPGPU-Sim PTX:  5 (potential) branch divergence @  PC=0x1098 (_1.ptx:770) bra.uni $Lt_10_45314;
GPGPU-Sim PTX:    immediate post dominator      @  PC=0x11b8 (_1.ptx:815) mov.f32 %f108, 0f00000000;   // 0
GPGPU-Sim PTX:  6 (potential) branch divergence @  PC=0x1140 (_1.ptx:793) @%p6 bra $Lt_10_46594;
GPGPU-Sim PTX:    immediate post dominator      @  PC=0x11b0 (_1.ptx:813) mov.f32 %f87, %f101;
GPGPU-Sim PTX:  7 (potential) branch divergence @  PC=0x1150 (_1.ptx:795) bra.uni $Lt_10_46850;
GPGPU-Sim PTX:    immediate post dominator      @  PC=0x11b0 (_1.ptx:813) mov.f32 %f87, %f101;
GPGPU-Sim PTX:  8 (potential) branch divergence @  PC=0x1170 (_1.ptx:800) @!%p7 bra $Lt_10_47106;
GPGPU-Sim PTX:    immediate post dominator      @  PC=0x11b0 (_1.ptx:813) mov.f32 %f87, %f101;
GPGPU-Sim PTX:  9 (potential) branch divergence @  PC=0x1180 (_1.ptx:802) bra.uni $Lt_10_46850;
GPGPU-Sim PTX:    immediate post dominator      @  PC=0x11b0 (_1.ptx:813) mov.f32 %f87, %f101;
GPGPU-Sim PTX: 10 (potential) branch divergence @  PC=0x11f8 (_1.ptx:823) @%p8 bra $Lt_10_47362;
GPGPU-Sim PTX:    immediate post dominator      @  PC=0x1210 (_1.ptx:829) add.s32 %r25, %r25, 1;
GPGPU-Sim PTX: 11 (potential) branch divergence @  PC=0x1230 (_1.ptx:833) @%p9 bra $Lt_10_45058;
GPGPU-Sim PTX:    immediate post dominator      @  PC=0x1238 (_1.ptx:834) mov.f32 %f109, 0f00000000;   // 0
GPGPU-Sim PTX: 12 (potential) branch divergence @  PC=0x1280 (_1.ptx:843) @%p10 bra $Lt_10_48130;
GPGPU-Sim PTX:    immediate post dominator      @  PC=0x2140 (_1.ptx:1416) add.s32 %r23, %r23, 1;
GPGPU-Sim PTX: 13 (potential) branch divergence @  PC=0x1330 (_1.ptx:868) @%p11 bra $Lt_10_48898;
GPGPU-Sim PTX:    immediate post dominator      @  PC=0x13b8 (_1.ptx:888) sub.f32 %f136, %f21, %f119;
GPGPU-Sim PTX: 14 (potential) branch divergence @  PC=0x1350 (_1.ptx:873) bra.uni $Lt_10_48642;
GPGPU-Sim PTX:    immediate post dominator      @  PC=0x13b8 (_1.ptx:888) sub.f32 %f136, %f21, %f119;
GPGPU-Sim PTX: 15 (potential) branch divergence @  PC=0x1430 (_1.ptx:903) @!%p12 bra $Lt_10_49410;
GPGPU-Sim PTX:    immediate post dominator      @  PC=0x1470 (_1.ptx:915) mov.f32 %f153, 0f3d4ccccd;   // 0.05
GPGPU-Sim PTX: 16 (potential) branch divergence @  PC=0x1450 (_1.ptx:908) bra.uni $Lt_10_49154;
GPGPU-Sim PTX:    immediate post dominator      @  PC=0x1470 (_1.ptx:915) mov.f32 %f153, 0f3d4ccccd;   // 0.05
GPGPU-Sim PTX: 17 (potential) branch divergence @  PC=0x1578 (_1.ptx:949) @!%p13 bra $Lt_10_58114;
GPGPU-Sim PTX:    immediate post dominator      @  PC=0x2080 (_1.ptx:1388) add.f32 %f399, %f126, %f126;
GPGPU-Sim PTX: 18 (potential) branch divergence @  PC=0x15c0 (_1.ptx:961) @%p14 bra $Lt_10_49922;
GPGPU-Sim PTX:    immediate post dominator      @  PC=0x17b0 (_1.ptx:1039) mov.f32 %f221, 0f00000000;   // 0
GPGPU-Sim PTX: 19 (potential) branch divergence @  PC=0x15e0 (_1.ptx:966) @!%p15 bra $Lt_10_50434;
GPGPU-Sim PTX:    immediate post dominator      @  PC=0x1638 (_1.ptx:982) mov.f32 %f190, %f183;
GPGPU-Sim PTX: 20 (potential) branch divergence @  PC=0x15f0 (_1.ptx:968) bra.uni $Lt_10_50178;
GPGPU-Sim PTX:    immediate post dominator      @  PC=0x1638 (_1.ptx:982) mov.f32 %f190, %f183;
GPGPU-Sim PTX: 21 (potential) branch divergence @  PC=0x1640 (_1.ptx:983) bra.uni $Lt_10_49666;
GPGPU-Sim PTX:    immediate post dominator      @  PC=0x17b0 (_1.ptx:1039) mov.f32 %f221, 0f00000000;   // 0
GPGPU-Sim PTX: 22 (potential) branch divergence @  PC=0x1738 (_1.ptx:1016) @%p18 bra $Lt_10_50946;
GPGPU-Sim PTX:    immediate post dominator      @  PC=0x17a8 (_1.ptx:1036) mov.f32 %f190, %f214;
GPGPU-Sim PTX: 23 (potential) branch divergence @  PC=0x1748 (_1.ptx:1018) bra.uni $Lt_10_51202;
GPGPU-Sim PTX:    immediate post dominator      @  PC=0x17a8 (_1.ptx:1036) mov.f32 %f190, %f214;
GPGPU-Sim PTX: 24 (potential) branch divergence @  PC=0x1768 (_1.ptx:1023) @!%p19 bra $Lt_10_51458;
GPGPU-Sim PTX:    immediate post dominator      @  PC=0x17a8 (_1.ptx:1036) mov.f32 %f190, %f214;
GPGPU-Sim PTX: 25 (potential) branch divergence @  PC=0x1778 (_1.ptx:1025) bra.uni $Lt_10_51202;
GPGPU-Sim PTX:    immediate post dominator      @  PC=0x17a8 (_1.ptx:1036) mov.f32 %f190, %f214;
GPGPU-Sim PTX: 26 (potential) branch divergence @  PC=0x17c0 (_1.ptx:1041) @!%p20 bra $Lt_10_58370;
GPGPU-Sim PTX:    immediate post dominator      @  PC=0x1828 (_1.ptx:1057) add.s32 %r50, %r50, 1;
GPGPU-Sim PTX: 27 (potential) branch divergence @  PC=0x1818 (_1.ptx:1052) @!%p21 bra $Lt_10_58370;
GPGPU-Sim PTX:    immediate post dominator      @  PC=0x1828 (_1.ptx:1057) add.s32 %r50, %r50, 1;
GPGPU-Sim PTX: 28 (potential) branch divergence @  PC=0x1848 (_1.ptx:1061) @%p22 bra $Lt_10_58882;
GPGPU-Sim PTX:    immediate post dominator      @  PC=0x1880 (_1.ptx:1071) @!%p23 bra $Lt_10_58114;
GPGPU-Sim PTX: 29 (potential) branch divergence @  PC=0x1860 (_1.ptx:1064) @%p23 bra $L_10_42498;
GPGPU-Sim PTX:    immediate post dominator      @  PC=0x1880 (_1.ptx:1071) @!%p23 bra $Lt_10_58114;
GPGPU-Sim PTX: 30 (potential) branch divergence @  PC=0x1868 (_1.ptx:1065) bra.uni $L_10_43266;
GPGPU-Sim PTX:    immediate post dominator      @  PC=0x1880 (_1.ptx:1071) @!%p23 bra $Lt_10_58114;
GPGPU-Sim PTX: 31 (potential) branch divergence @  PC=0x1880 (_1.ptx:1071) @!%p23 bra $Lt_10_58114;
GPGPU-Sim PTX:    immediate post dominator      @  PC=0x2080 (_1.ptx:1388) add.f32 %f399, %f126, %f126;
GPGPU-Sim PTX: 32 (potential) branch divergence @  PC=0x19c8 (_1.ptx:1115) @!%p24 bra $Lt_10_51714;
GPGPU-Sim PTX:    immediate post dominator      @  PC=0x2040 (_1.ptx:1375) mov.f32 %f394, 0f3f4ccccd;   // 0.8
GPGPU-Sim PTX: 33 (potential) branch divergence @  PC=0x19d8 (_1.ptx:1118) bra.uni $LDWendi___isnanf_192_1;
GPGPU-Sim PTX:    immediate post dominator      @  PC=0x2040 (_1.ptx:1375) mov.f32 %f394, 0f3f4ccccd;   // 0.8
GPGPU-Sim PTX: 34 (potential) branch divergence @  PC=0x19f8 (_1.ptx:1124) @!%p25 bra $Lt_10_7682;
GPGPU-Sim PTX:    immediate post dominator      @  PC=0x2040 (_1.ptx:1375) mov.f32 %f394, 0f3f4ccccd;   // 0.8
GPGPU-Sim PTX: 35 (potential) branch divergence @  PC=0x1a00 (_1.ptx:1125) bra.uni $Lt_10_7938;
GPGPU-Sim PTX:    immediate post dominator      @  PC=0x1a20 (_1.ptx:1133) mov.f32 %f272, 0f7f800000;   // ((1.0F)/(0.0F))
GPGPU-Sim PTX: 36 (potential) branch divergence @  PC=0x1a18 (_1.ptx:1130) bra.uni $LDWendi___isnanf_192_1;
GPGPU-Sim PTX:    immediate post dominator      @  PC=0x2040 (_1.ptx:1375) mov.f32 %f394, 0f3f4ccccd;   // 0.8
GPGPU-Sim PTX: 37 (potential) branch divergence @  PC=0x1a30 (_1.ptx:1135) @!%p26 bra $Lt_10_52226;
GPGPU-Sim PTX:    immediate post dominator      @  PC=0x2040 (_1.ptx:1375) mov.f32 %f394, 0f3f4ccccd;   // 0.8
GPGPU-Sim PTX: 38 (potential) branch divergence @  PC=0x1a40 (_1.ptx:1138) bra.uni $LDWendi___isnanf_192_1;
GPGPU-Sim PTX:    immediate post dominator      @  PC=0x2040 (_1.ptx:1375) mov.f32 %f394, 0f3f4ccccd;   // 0.8
GPGPU-Sim PTX: 39 (potential) branch divergence @  PC=0x1a58 (_1.ptx:1142) @!%p27 bra $Lt_10_52738;
GPGPU-Sim PTX:    immediate post dominator      @  PC=0x2040 (_1.ptx:1375) mov.f32 %f394, 0f3f4ccccd;   // 0.8
GPGPU-Sim PTX: 40 (potential) branch divergence @  PC=0x1ab8 (_1.ptx:1155) bra.uni $LDWendi___isnanf_192_1;
GPGPU-Sim PTX:    immediate post dominator      @  PC=0x2040 (_1.ptx:1375) mov.f32 %f394, 0f3f4ccccd;   // 0.8
GPGPU-Sim PTX: 41 (potential) branch divergence @  PC=0x1ad0 (_1.ptx:1159) @!%p29 bra $Lt_10_53250;
GPGPU-Sim PTX:    immediate post dominator      @  PC=0x2040 (_1.ptx:1375) mov.f32 %f394, 0f3f4ccccd;   // 0.8
GPGPU-Sim PTX: 42 (potential) branch divergence @  PC=0x1b20 (_1.ptx:1170) @!%p30 bra $Lt_10_53762;
GPGPU-Sim PTX:    immediate post dominator      @  PC=0x1b40 (_1.ptx:1177) mov.f32 %f268, %f284;
GPGPU-Sim PTX: 43 (potential) branch divergence @  PC=0x1b48 (_1.ptx:1178) bra.uni $LDWendi___isnanf_192_1;
GPGPU-Sim PTX:    immediate post dominator      @  PC=0x2040 (_1.ptx:1375) mov.f32 %f394, 0f3f4ccccd;   // 0.8
GPGPU-Sim PTX: 44 (potential) branch divergence @  PC=0x1b60 (_1.ptx:1183) @!%p31 bra $Lt_10_59394;
GPGPU-Sim PTX:    immediate post dominator      @  PC=0x2040 (_1.ptx:1375) mov.f32 %f394, 0f3f4ccccd;   // 0.8
GPGPU-Sim PTX: 45 (potential) branch divergence @  PC=0x1b88 (_1.ptx:1188) @!%p32 bra $Lt_10_59394;
GPGPU-Sim PTX:    immediate post dominator      @  PC=0x2040 (_1.ptx:1375) mov.f32 %f394, 0f3f4ccccd;   // 0.8
GPGPU-Sim PTX: 46 (potential) branch divergence @  PC=0x1ba0 (_1.ptx:1192) bra.uni $LDWendi___isnanf_192_1;
GPGPU-Sim PTX:    immediate post dominator      @  PC=0x2040 (_1.ptx:1375) mov.f32 %f394, 0f3f4ccccd;   // 0.8
GPGPU-Sim PTX: 47 (potential) branch divergence @  PC=0x1bd8 (_1.ptx:1202) @%p33 bra $Lt_10_54530;
GPGPU-Sim PTX:    immediate post dominator      @  PC=0x1c20 (_1.ptx:1216) sub.s32 %r64, %r64, 127;
GPGPU-Sim PTX: 48 (potential) branch divergence @  PC=0x1c10 (_1.ptx:1211) bra.uni $Lt_10_54274;
GPGPU-Sim PTX:    immediate post dominator      @  PC=0x1c20 (_1.ptx:1216) sub.s32 %r64, %r64, 127;
GPGPU-Sim PTX: 49 (potential) branch divergence @  PC=0x1c58 (_1.ptx:1224) @!%p34 bra $Lt_10_54786;
GPGPU-Sim PTX:    immediate post dominator      @  PC=0x1c78 (_1.ptx:1232) mov.f32 %f302, 0fbf800000;   // -1
GPGPU-Sim PTX: 50 (potential) branch divergence @  PC=0x1eb0 (_1.ptx:1312) @%p35 bra $Lt_10_55298;
GPGPU-Sim PTX:    immediate post dominator      @  PC=0x1ed8 (_1.ptx:1321) mov.f32 %f367, %f365;
GPGPU-Sim PTX: 51 (potential) branch divergence @  PC=0x1f98 (_1.ptx:1346) @!%p38 bra $Lt_10_55810;
GPGPU-Sim PTX:    immediate post dominator      @  PC=0x1fa8 (_1.ptx:1351) mov.f32 %f284, %f386;
GPGPU-Sim PTX: 52 (potential) branch divergence @  PC=0x2018 (_1.ptx:1365) @%p39 bra $Lt_10_56322;
GPGPU-Sim PTX:    immediate post dominator      @  PC=0x2038 (_1.ptx:1372) mov.f32 %f268, %f284;
GPGPU-Sim PTX: 53 (potential) branch divergence @  PC=0x2158 (_1.ptx:1419) @%p40 bra $L_10_42242;
GPGPU-Sim PTX:    immediate post dominator      @  PC=0x2170 (_1.ptx:1424) sub.s32 %r86, %r24, 1;
GPGPU-Sim PTX: 54 (potential) branch divergence @  PC=0x2168 (_1.ptx:1421) @%p41 bra $L_10_41474;
GPGPU-Sim PTX:    immediate post dominator      @  PC=0x2170 (_1.ptx:1424) sub.s32 %r86, %r24, 1;
GPGPU-Sim PTX: 55 (potential) branch divergence @  PC=0x2190 (_1.ptx:1428) @%p42 bra $Lt_10_56834;
GPGPU-Sim PTX:    immediate post dominator      @  PC=0x2288 (_1.ptx:1464) ld.global.u32 %r92, [%rd4+0];
GPGPU-Sim PTX: 56 (potential) branch divergence @  PC=0x2280 (_1.ptx:1461) @%p43 bra $Lt_10_57346;
GPGPU-Sim PTX:    immediate post dominator      @  PC=0x2288 (_1.ptx:1464) ld.global.u32 %r92, [%rd4+0];
GPGPU-Sim PTX: ... end of reconvergence points for _Z6renderPjP4Nodejjff
GPGPU-Sim PTX: ... done pre-decoding instructions for '_Z6renderPjP4Nodejjff'.
GPGPU-Sim PTX: instruction assembly for function '_ZN4dim3C1Ejjj'...   done.
GPGPU-Sim PTX: finding reconvergence points for '_ZN4dim3C1Ejjj'...
GPGPU-Sim PTX: Finding dominators for '_ZN4dim3C1Ejjj'...
GPGPU-Sim PTX: Finding immediate dominators for '_ZN4dim3C1Ejjj'...
GPGPU-Sim PTX: Finding postdominators for '_ZN4dim3C1Ejjj'...
GPGPU-Sim PTX: Finding immediate postdominators for '_ZN4dim3C1Ejjj'...
GPGPU-Sim PTX: pre-decoding instructions for '_ZN4dim3C1Ejjj'...
GPGPU-Sim PTX: reconvergence points for _ZN4dim3C1Ejjj...
GPGPU-Sim PTX: ... end of reconvergence points for _ZN4dim3C1Ejjj
GPGPU-Sim PTX: ... done pre-decoding instructions for '_ZN4dim3C1Ejjj'.
GPGPU-Sim PTX: finished parsing EMBEDDED .ptx file _1.ptx
Adding _cuobjdump_2.ptx with cubin handle 1
GPGPU-Sim PTX: extracting embedded .ptx to temporary file "_ptx_2SaZcP"
Running: cat _ptx_2SaZcP | sed 's/.version 1.5/.version 1.4/' | sed 's/, texmode_independent//' | sed 's/\(\.extern \.const\[1\] .b8 \w\+\)\[\]/\1\[1\]/' | sed 's/const\[.\]/const\[0\]/g' > _ptx2_7HFLGK
GPGPU-Sim PTX: generating ptxinfo using "$CUDA_INSTALL_PATH/bin/ptxas --gpu-name=sm_20 -v _ptx2_7HFLGK --output-file  /dev/null 2> _ptx_2SaZcPinfo"
GPGPU-Sim PTX: Kernel '_Z6renderPjP4Nodejjff' : regs=45, lmem=4, smem=0, cmem=180
GPGPU-Sim PTX: removing ptxinfo using "rm -f _ptx_2SaZcP _ptx2_7HFLGK _ptx_2SaZcPinfo"
GPGPU-Sim PTX: loading globals with explicit initializers... 
GPGPU-Sim PTX: finished loading globals (0 bytes total).
GPGPU-Sim PTX: loading constants with explicit initializers...  done.
GPGPU-Sim PTX: __cudaRegisterVar: hostVar = 0x636760; deviceAddress = MView; deviceName = MView
GPGPU-Sim PTX: __cudaRegisterVar: Registering const memory space of 48 bytes
GPGPU-Sim PTX registering constant MView (48 bytes) to name mapping
GPGPU-Sim PTX: __cudaRegisterVar: hostVar = 0x6367a0; deviceAddress = cnode; deviceName = cnode
GPGPU-Sim PTX: __cudaRegisterVar: Registering const memory space of 160 bytes
GPGPU-Sim PTX registering constant cnode (160 bytes) to name mapping
GPGPU-Sim PTX: cudaMemcpyToSymbol: symbol = 0x6367a0
GPGPU-Sim PTX: starting gpgpu_ptx_sim_memcpy_symbol with hostVar 0x0x6367a0
GPGPU-Sim PTX: gpgpu_ptx_sim_memcpy_symbol: Found PTX symbol w/ hostVar=0x6367a0
GPGPU-Sim PTX: gpgpu_ptx_sim_memcpy_symbol: copying const memory 160 bytes  to  symbol cnode+0 @0x100 ...
GPGPU-Sim PTX: cudaMemcpyToSymbol: symbol = 0x636760
GPGPU-Sim PTX: starting gpgpu_ptx_sim_memcpy_symbol with hostVar 0x0x636760
GPGPU-Sim PTX: gpgpu_ptx_sim_memcpy_symbol: Found PTX symbol w/ hostVar=0x636760
GPGPU-Sim PTX: gpgpu_ptx_sim_memcpy_symbol: copying const memory 48 bytes  to  symbol MView+0 @0x200 ...

GPGPU-Sim PTX: cudaLaunch for 0x0x40a280 (mode=performance simulation) on stream 0
GPGPU-Sim PTX: pushing kernel '_Z6renderPjP4Nodejjff' to stream 0, gridDim= (16,32,1) blockDim = (16,8,1) 
kernel '_Z6renderPjP4Nodejjff' transfer to GPU hardware scheduler
GPGPU-Sim uArch: Shader 1 bind to kernel 1 '_Z6renderPjP4Nodejjff'
GPGPU-Sim uArch: CTA/core = 5, limited by: regs
GPGPU-Sim uArch: core:  1, cta: 0 initialized @(1,0)
GPGPU-Sim uArch: Shader 2 bind to kernel 1 '_Z6renderPjP4Nodejjff'
GPGPU-Sim uArch: core:  2, cta: 0 initialized @(1,0)
GPGPU-Sim uArch: Shader 3 bind to kernel 1 '_Z6renderPjP4Nodejjff'
GPGPU-Sim uArch: core:  3, cta: 0 initialized @(1,0)
GPGPU-Sim uArch: Shader 4 bind to kernel 1 '_Z6renderPjP4Nodejjff'
GPGPU-Sim uArch: core:  4, cta: 0 initialized @(1,0)
GPGPU-Sim uArch: Shader 5 bind to kernel 1 '_Z6renderPjP4Nodejjff'
GPGPU-Sim uArch: core:  5, cta: 0 initialized @(1,0)
GPGPU-Sim uArch: Shader 6 bind to kernel 1 '_Z6renderPjP4Nodejjff'
GPGPU-Sim uArch: core:  6, cta: 0 initialized @(1,0)
GPGPU-Sim uArch: Shader 7 bind to kernel 1 '_Z6renderPjP4Nodejjff'
GPGPU-Sim uArch: core:  7, cta: 0 initialized @(1,0)
GPGPU-Sim uArch: Shader 8 bind to kernel 1 '_Z6renderPjP4Nodejjff'
GPGPU-Sim uArch: core:  8, cta: 0 initialized @(1,0)
GPGPU-Sim uArch: Shader 9 bind to kernel 1 '_Z6renderPjP4Nodejjff'
GPGPU-Sim uArch: core:  9, cta: 0 initialized @(1,0)
GPGPU-Sim uArch: Shader 10 bind to kernel 1 '_Z6renderPjP4Nodejjff'
GPGPU-Sim uArch: core: 10, cta: 0 initialized @(1,0)
GPGPU-Sim uArch: Shader 11 bind to kernel 1 '_Z6renderPjP4Nodejjff'
GPGPU-Sim uArch: core: 11, cta: 0 initialized @(1,0)
GPGPU-Sim uArch: Shader 12 bind to kernel 1 '_Z6renderPjP4Nodejjff'
GPGPU-Sim uArch: core: 12, cta: 0 initialized @(1,0)
GPGPU-Sim uArch: Shader 13 bind to kernel 1 '_Z6renderPjP4Nodejjff'
GPGPU-Sim uArch: core: 13, cta: 0 initialized @(1,0)
GPGPU-Sim uArch: Shader 14 bind to kernel 1 '_Z6renderPjP4Nodejjff'
GPGPU-Sim uArch: core: 14, cta: 0 initialized @(1,0)
GPGPU-Sim uArch: Shader 0 bind to kernel 1 '_Z6renderPjP4Nodejjff'
GPGPU-Sim uArch: core:  0, cta: 0 initialized @(1,0)
GPGPU-Sim uArch: core:  1, cta: 1 initialized @(2,0)
GPGPU-Sim uArch: core:  2, cta: 1 initialized @(2,0)
GPGPU-Sim uArch: core:  3, cta: 1 initialized @(2,0)
GPGPU-Sim uArch: core:  4, cta: 1 initialized @(2,0)
GPGPU-Sim uArch: core:  5, cta: 1 initialized @(2,0)
GPGPU-Sim uArch: core:  6, cta: 1 initialized @(2,0)
GPGPU-Sim uArch: core:  7, cta: 1 initialized @(2,0)
GPGPU-Sim uArch: core:  8, cta: 1 initialized @(2,0)
GPGPU-Sim uArch: core:  9, cta: 1 initialized @(2,0)
GPGPU-Sim uArch: core: 10, cta: 1 initialized @(2,0)
GPGPU-Sim uArch: core: 11, cta: 1 initialized @(2,0)
GPGPU-Sim uArch: core: 12, cta: 1 initialized @(2,0)
GPGPU-Sim uArch: core: 13, cta: 1 initialized @(2,0)
GPGPU-Sim uArch: core: 14, cta: 1 initialized @(2,0)
GPGPU-Sim uArch: core:  0, cta: 1 initialized @(2,0)
GPGPU-Sim uArch: core:  1, cta: 2 initialized @(3,0)
GPGPU-Sim uArch: core:  2, cta: 2 initialized @(3,0)
GPGPU-Sim uArch: core:  3, cta: 2 initialized @(3,0)
GPGPU-Sim uArch: core:  4, cta: 2 initialized @(3,0)
GPGPU-Sim uArch: core:  5, cta: 2 initialized @(3,0)
GPGPU-Sim uArch: core:  6, cta: 2 initialized @(3,0)
GPGPU-Sim uArch: core:  7, cta: 2 initialized @(3,0)
GPGPU-Sim uArch: core:  8, cta: 2 initialized @(3,0)
GPGPU-Sim uArch: core:  9, cta: 2 initialized @(3,0)
GPGPU-Sim uArch: core: 10, cta: 2 initialized @(3,0)
GPGPU-Sim uArch: core: 11, cta: 2 initialized @(3,0)
GPGPU-Sim uArch: core: 12, cta: 2 initialized @(3,0)
GPGPU-Sim uArch: core: 13, cta: 2 initialized @(3,0)
GPGPU-Sim uArch: core: 14, cta: 2 initialized @(3,0)
GPGPU-Sim uArch: core:  0, cta: 2 initialized @(3,0)
GPGPU-Sim uArch: core:  1, cta: 3 initialized @(4,0)
GPGPU-Sim uArch: core:  2, cta: 3 initialized @(4,0)
GPGPU-Sim uArch: core:  3, cta: 3 initialized @(4,0)
GPGPU-Sim uArch: core:  4, cta: 3 initialized @(4,0)
GPGPU-Sim uArch: core:  5, cta: 3 initialized @(4,0)
GPGPU-Sim uArch: core:  6, cta: 3 initialized @(4,0)
GPGPU-Sim uArch: core:  7, cta: 3 initialized @(4,0)
GPGPU-Sim uArch: core:  8, cta: 3 initialized @(4,0)
GPGPU-Sim uArch: core:  9, cta: 3 initialized @(4,0)
GPGPU-Sim uArch: core: 10, cta: 3 initialized @(4,0)
GPGPU-Sim uArch: core: 11, cta: 3 initialized @(4,0)
GPGPU-Sim uArch: core: 12, cta: 3 initialized @(4,0)
GPGPU-Sim uArch: core: 13, cta: 3 initialized @(4,0)
GPGPU-Sim uArch: core: 14, cta: 3 initialized @(4,0)
GPGPU-Sim uArch: core:  0, cta: 3 initialized @(4,0)
GPGPU-Sim uArch: core:  1, cta: 4 initialized @(5,0)
GPGPU-Sim uArch: core:  2, cta: 4 initialized @(5,0)
GPGPU-Sim uArch: core:  3, cta: 4 initialized @(5,0)
GPGPU-Sim uArch: core:  4, cta: 4 initialized @(5,0)
GPGPU-Sim uArch: core:  5, cta: 4 initialized @(5,0)
GPGPU-Sim uArch: core:  6, cta: 4 initialized @(5,0)
GPGPU-Sim uArch: core:  7, cta: 4 initialized @(5,0)
GPGPU-Sim uArch: core:  8, cta: 4 initialized @(5,0)
GPGPU-Sim uArch: core:  9, cta: 4 initialized @(5,0)
GPGPU-Sim uArch: core: 10, cta: 4 initialized @(5,0)
GPGPU-Sim uArch: core: 11, cta: 4 initialized @(5,0)
GPGPU-Sim uArch: core: 12, cta: 4 initialized @(5,0)
GPGPU-Sim uArch: core: 13, cta: 4 initialized @(5,0)
GPGPU-Sim uArch: core: 14, cta: 4 initialized @(5,0)
GPGPU-Sim uArch: core:  0, cta: 4 initialized @(5,0)
GPGPU-Sim uArch: cycles simulated: 500  inst.: 34240 (ipc=68.5) sim_rate=34240 (inst/sec) elapsed = 0:0:00:01 / Wed May 13 20:53:57 2015
GPGPU-Sim uArch: cycles simulated: 1000  inst.: 62848 (ipc=62.8) sim_rate=20949 (inst/sec) elapsed = 0:0:00:03 / Wed May 13 20:53:59 2015
GPGPU-Sim uArch: cycles simulated: 1500  inst.: 72032 (ipc=48.0) sim_rate=18008 (inst/sec) elapsed = 0:0:00:04 / Wed May 13 20:54:00 2015
GPGPU-Sim uArch: cycles simulated: 2000  inst.: 84160 (ipc=42.1) sim_rate=16832 (inst/sec) elapsed = 0:0:00:05 / Wed May 13 20:54:01 2015
GPGPU-Sim PTX: 100000 instructions simulated : ctaid=(10,0,0) tid=(15,1,0)
GPGPU-Sim uArch: cycles simulated: 2500  inst.: 109792 (ipc=43.9) sim_rate=18298 (inst/sec) elapsed = 0:0:00:06 / Wed May 13 20:54:02 2015
GPGPU-Sim uArch: cycles simulated: 3000  inst.: 127680 (ipc=42.6) sim_rate=18240 (inst/sec) elapsed = 0:0:00:07 / Wed May 13 20:54:03 2015
GPGPU-Sim uArch: cycles simulated: 3500  inst.: 168448 (ipc=48.1) sim_rate=21056 (inst/sec) elapsed = 0:0:00:08 / Wed May 13 20:54:04 2015
GPGPU-Sim PTX: 200000 instructions simulated : ctaid=(1,0,0) tid=(15,1,0)
GPGPU-Sim uArch: cycles simulated: 4000  inst.: 216736 (ipc=54.2) sim_rate=24081 (inst/sec) elapsed = 0:0:00:09 / Wed May 13 20:54:05 2015
GPGPU-Sim uArch: cycles simulated: 4500  inst.: 245440 (ipc=54.5) sim_rate=24544 (inst/sec) elapsed = 0:0:00:10 / Wed May 13 20:54:06 2015
GPGPU-Sim PTX: 300000 instructions simulated : ctaid=(7,1,0) tid=(15,1,0)
GPGPU-Sim uArch: cycles simulated: 5000  inst.: 335840 (ipc=67.2) sim_rate=30530 (inst/sec) elapsed = 0:0:00:11 / Wed May 13 20:54:07 2015
GPGPU-Sim PTX: 400000 instructions simulated : ctaid=(6,0,0) tid=(15,1,0)
GPGPU-Sim uArch: cycles simulated: 5500  inst.: 431872 (ipc=78.5) sim_rate=33220 (inst/sec) elapsed = 0:0:00:13 / Wed May 13 20:54:09 2015
GPGPU-Sim PTX: 500000 instructions simulated : ctaid=(12,1,0) tid=(15,7,0)
GPGPU-Sim uArch: cycles simulated: 6000  inst.: 530208 (ipc=88.4) sim_rate=37872 (inst/sec) elapsed = 0:0:00:14 / Wed May 13 20:54:10 2015
GPGPU-Sim PTX: 600000 instructions simulated : ctaid=(11,2,0) tid=(15,3,0)
GPGPU-Sim uArch: cycles simulated: 6500  inst.: 653280 (ipc=100.5) sim_rate=40830 (inst/sec) elapsed = 0:0:00:16 / Wed May 13 20:54:12 2015
GPGPU-Sim uArch: cycles simulated: 7000  inst.: 660832 (ipc=94.4) sim_rate=38872 (inst/sec) elapsed = 0:0:00:17 / Wed May 13 20:54:13 2015
GPGPU-Sim PTX: 700000 instructions simulated : ctaid=(11,0,0) tid=(15,5,0)
GPGPU-Sim PTX: 800000 instructions simulated : ctaid=(10,1,0) tid=(15,1,0)
GPGPU-Sim uArch: cycles simulated: 7500  inst.: 857952 (ipc=114.4) sim_rate=47664 (inst/sec) elapsed = 0:0:00:18 / Wed May 13 20:54:14 2015
GPGPU-Sim PTX: 900000 instructions simulated : ctaid=(8,2,0) tid=(15,7,0)
GPGPU-Sim PTX: 1000000 instructions simulated : ctaid=(12,2,0) tid=(15,3,0)
GPGPU-Sim uArch: cycles simulated: 8000  inst.: 1002464 (ipc=125.3) sim_rate=50123 (inst/sec) elapsed = 0:0:00:20 / Wed May 13 20:54:16 2015
GPGPU-Sim PTX: 1100000 instructions simulated : ctaid=(7,3,0) tid=(15,3,0)
GPGPU-Sim uArch: cycles simulated: 8500  inst.: 1108512 (ipc=130.4) sim_rate=52786 (inst/sec) elapsed = 0:0:00:21 / Wed May 13 20:54:17 2015
GPGPU-Sim PTX: 1200000 instructions simulated : ctaid=(9,2,0) tid=(15,7,0)
GPGPU-Sim PTX: 1300000 instructions simulated : ctaid=(13,3,0) tid=(15,5,0)
GPGPU-Sim uArch: cycles simulated: 9000  inst.: 1323424 (ipc=147.0) sim_rate=57540 (inst/sec) elapsed = 0:0:00:23 / Wed May 13 20:54:19 2015
GPGPU-Sim PTX: 1400000 instructions simulated : ctaid=(8,3,0) tid=(15,5,0)
GPGPU-Sim uArch: cycles simulated: 9500  inst.: 1468096 (ipc=154.5) sim_rate=58723 (inst/sec) elapsed = 0:0:00:25 / Wed May 13 20:54:21 2015
GPGPU-Sim PTX: 1500000 instructions simulated : ctaid=(9,1,0) tid=(15,1,0)
GPGPU-Sim PTX: 1600000 instructions simulated : ctaid=(0,0,0) tid=(15,5,0)
GPGPU-Sim PTX: 1700000 instructions simulated : ctaid=(12,1,0) tid=(15,3,0)
GPGPU-Sim uArch: cycles simulated: 10000  inst.: 1686400 (ipc=168.6) sim_rate=62459 (inst/sec) elapsed = 0:0:00:27 / Wed May 13 20:54:23 2015
GPGPU-Sim PTX: 1800000 instructions simulated : ctaid=(0,0,0) tid=(15,7,0)
GPGPU-Sim PTX: 1900000 instructions simulated : ctaid=(4,1,0) tid=(15,1,0)
GPGPU-Sim uArch: cycles simulated: 10500  inst.: 1919456 (ipc=182.8) sim_rate=68552 (inst/sec) elapsed = 0:0:00:28 / Wed May 13 20:54:24 2015
GPGPU-Sim PTX: 2000000 instructions simulated : ctaid=(8,2,0) tid=(15,7,0)
GPGPU-Sim PTX: 2100000 instructions simulated : ctaid=(15,0,0) tid=(15,5,0)
GPGPU-Sim uArch: cycles simulated: 11000  inst.: 2150432 (ipc=195.5) sim_rate=71681 (inst/sec) elapsed = 0:0:00:30 / Wed May 13 20:54:26 2015
GPGPU-Sim PTX: 2200000 instructions simulated : ctaid=(4,1,0) tid=(15,5,0)
GPGPU-Sim PTX: 2300000 instructions simulated : ctaid=(8,2,0) tid=(15,3,0)
GPGPU-Sim PTX: 2400000 instructions simulated : ctaid=(14,1,0) tid=(15,3,0)
GPGPU-Sim uArch: cycles simulated: 11500  inst.: 2381184 (ipc=207.1) sim_rate=74412 (inst/sec) elapsed = 0:0:00:32 / Wed May 13 20:54:28 2015
GPGPU-Sim PTX: 2500000 instructions simulated : ctaid=(9,0,0) tid=(15,5,0)
GPGPU-Sim PTX: 2600000 instructions simulated : ctaid=(5,2,0) tid=(15,7,0)
GPGPU-Sim uArch: cycles simulated: 12000  inst.: 2614592 (ipc=217.9) sim_rate=76899 (inst/sec) elapsed = 0:0:00:34 / Wed May 13 20:54:30 2015
GPGPU-Sim PTX: 2700000 instructions simulated : ctaid=(6,0,0) tid=(15,5,0)
GPGPU-Sim PTX: 2800000 instructions simulated : ctaid=(6,3,0) tid=(15,5,0)
GPGPU-Sim uArch: cycles simulated: 12500  inst.: 2810752 (ipc=224.9) sim_rate=78076 (inst/sec) elapsed = 0:0:00:36 / Wed May 13 20:54:32 2015
GPGPU-Sim PTX: 2900000 instructions simulated : ctaid=(13,2,0) tid=(15,1,0)
GPGPU-Sim PTX: 3000000 instructions simulated : ctaid=(14,0,0) tid=(15,1,0)
GPGPU-Sim PTX: 3100000 instructions simulated : ctaid=(2,3,0) tid=(15,1,0)
GPGPU-Sim uArch: cycles simulated: 13000  inst.: 3029504 (ipc=233.0) sim_rate=79723 (inst/sec) elapsed = 0:0:00:38 / Wed May 13 20:54:34 2015
GPGPU-Sim PTX: 3200000 instructions simulated : ctaid=(5,2,0) tid=(15,7,0)
GPGPU-Sim PTX: 3300000 instructions simulated : ctaid=(11,3,0) tid=(15,1,0)
GPGPU-Sim uArch: cycles simulated: 13500  inst.: 3234720 (ipc=239.6) sim_rate=82941 (inst/sec) elapsed = 0:0:00:39 / Wed May 13 20:54:35 2015
GPGPU-Sim PTX: 3400000 instructions simulated : ctaid=(7,1,0) tid=(15,5,0)
GPGPU-Sim PTX: 3500000 instructions simulated : ctaid=(1,3,0) tid=(15,1,0)
GPGPU-Sim uArch: cycles simulated: 14000  inst.: 3419136 (ipc=244.2) sim_rate=83393 (inst/sec) elapsed = 0:0:00:41 / Wed May 13 20:54:37 2015
GPGPU-Sim PTX: 3600000 instructions simulated : ctaid=(15,2,0) tid=(15,5,0)
GPGPU-Sim PTX: 3700000 instructions simulated : ctaid=(2,1,0) tid=(15,3,0)
GPGPU-Sim uArch: cycles simulated: 14500  inst.: 3635100 (ipc=250.7) sim_rate=84537 (inst/sec) elapsed = 0:0:00:43 / Wed May 13 20:54:39 2015
GPGPU-Sim PTX: 3800000 instructions simulated : ctaid=(15,2,0) tid=(6,2,0)
GPGPU-Sim PTX: 3900000 instructions simulated : ctaid=(9,3,0) tid=(3,7,0)
GPGPU-Sim uArch: cycles simulated: 15000  inst.: 3852108 (ipc=256.8) sim_rate=87547 (inst/sec) elapsed = 0:0:00:44 / Wed May 13 20:54:40 2015
GPGPU-Sim PTX: 4000000 instructions simulated : ctaid=(5,1,0) tid=(7,1,0)
GPGPU-Sim PTX: 4100000 instructions simulated : ctaid=(0,0,0) tid=(3,2,0)
GPGPU-Sim uArch: cycles simulated: 15500  inst.: 4081331 (ipc=263.3) sim_rate=88724 (inst/sec) elapsed = 0:0:00:46 / Wed May 13 20:54:42 2015
GPGPU-Sim PTX: 4200000 instructions simulated : ctaid=(3,0,0) tid=(1,7,0)
GPGPU-Sim PTX: 4300000 instructions simulated : ctaid=(9,1,0) tid=(12,1,0)
GPGPU-Sim PTX: 4400000 instructions simulated : ctaid=(2,0,0) tid=(15,5,0)
GPGPU-Sim uArch: cycles simulated: 16000  inst.: 4312768 (ipc=269.5) sim_rate=89849 (inst/sec) elapsed = 0:0:00:48 / Wed May 13 20:54:44 2015
GPGPU-Sim PTX: 4500000 instructions simulated : ctaid=(7,0,0) tid=(15,3,0)
GPGPU-Sim PTX: 4600000 instructions simulated : ctaid=(12,1,0) tid=(12,5,0)
GPGPU-Sim uArch: cycles simulated: 16500  inst.: 4543596 (ipc=275.4) sim_rate=90871 (inst/sec) elapsed = 0:0:00:50 / Wed May 13 20:54:46 2015
GPGPU-Sim PTX: 4700000 instructions simulated : ctaid=(13,0,0) tid=(3,5,0)
GPGPU-Sim PTX: 4800000 instructions simulated : ctaid=(14,1,0) tid=(15,1,0)
GPGPU-Sim PTX: 4900000 instructions simulated : ctaid=(3,3,0) tid=(7,4,0)
GPGPU-Sim uArch: cycles simulated: 17000  inst.: 4772536 (ipc=280.7) sim_rate=93579 (inst/sec) elapsed = 0:0:00:51 / Wed May 13 20:54:47 2015
GPGPU-Sim PTX: 5000000 instructions simulated : ctaid=(3,1,0) tid=(13,2,0)
GPGPU-Sim PTX: 5100000 instructions simulated : ctaid=(4,1,0) tid=(15,5,0)
GPGPU-Sim uArch: cycles simulated: 17500  inst.: 4995968 (ipc=285.5) sim_rate=94263 (inst/sec) elapsed = 0:0:00:53 / Wed May 13 20:54:49 2015
GPGPU-Sim PTX: 5200000 instructions simulated : ctaid=(4,3,0) tid=(7,3,0)
GPGPU-Sim PTX: 5300000 instructions simulated : ctaid=(11,2,0) tid=(8,4,0)
GPGPU-Sim uArch: cycles simulated: 18000  inst.: 5192340 (ipc=288.5) sim_rate=96154 (inst/sec) elapsed = 0:0:00:54 / Wed May 13 20:54:50 2015
GPGPU-Sim PTX: 5400000 instructions simulated : ctaid=(6,1,0) tid=(10,1,0)
GPGPU-Sim PTX: 5500000 instructions simulated : ctaid=(12,3,0) tid=(10,7,0)
GPGPU-Sim uArch: cycles simulated: 18500  inst.: 5386666 (ipc=291.2) sim_rate=96190 (inst/sec) elapsed = 0:0:00:56 / Wed May 13 20:54:52 2015
GPGPU-Sim PTX: 5600000 instructions simulated : ctaid=(10,2,0) tid=(10,7,0)
GPGPU-Sim PTX: 5700000 instructions simulated : ctaid=(2,1,0) tid=(14,4,0)
GPGPU-Sim uArch: cycles simulated: 19000  inst.: 5595926 (ipc=294.5) sim_rate=96481 (inst/sec) elapsed = 0:0:00:58 / Wed May 13 20:54:54 2015
GPGPU-Sim PTX: 5800000 instructions simulated : ctaid=(2,3,0) tid=(10,0,0)
GPGPU-Sim PTX: 5900000 instructions simulated : ctaid=(5,3,0) tid=(0,3,0)
GPGPU-Sim uArch: cycles simulated: 19500  inst.: 5788374 (ipc=296.8) sim_rate=98108 (inst/sec) elapsed = 0:0:00:59 / Wed May 13 20:54:55 2015
GPGPU-Sim PTX: 6000000 instructions simulated : ctaid=(10,0,0) tid=(14,3,0)
GPGPU-Sim PTX: 6100000 instructions simulated : ctaid=(10,1,0) tid=(14,1,0)
GPGPU-Sim uArch: cycles simulated: 20000  inst.: 5961206 (ipc=298.1) sim_rate=97724 (inst/sec) elapsed = 0:0:01:01 / Wed May 13 20:54:57 2015
GPGPU-Sim PTX: 6200000 instructions simulated : ctaid=(14,1,0) tid=(14,7,0)
GPGPU-Sim PTX: 6300000 instructions simulated : ctaid=(9,2,0) tid=(14,3,0)
GPGPU-Sim uArch: cycles simulated: 20500  inst.: 6158198 (ipc=300.4) sim_rate=97749 (inst/sec) elapsed = 0:0:01:03 / Wed May 13 20:54:59 2015
GPGPU-Sim PTX: 6400000 instructions simulated : ctaid=(0,2,0) tid=(14,3,0)
GPGPU-Sim uArch: cycles simulated: 21000  inst.: 6327702 (ipc=301.3) sim_rate=98870 (inst/sec) elapsed = 0:0:01:04 / Wed May 13 20:55:00 2015
GPGPU-Sim PTX: 6500000 instructions simulated : ctaid=(5,1,0) tid=(14,1,0)
GPGPU-Sim PTX: 6600000 instructions simulated : ctaid=(15,3,0) tid=(14,1,0)
GPGPU-Sim uArch: cycles simulated: 21500  inst.: 6506006 (ipc=302.6) sim_rate=98575 (inst/sec) elapsed = 0:0:01:06 / Wed May 13 20:55:02 2015
GPGPU-Sim PTX: 6700000 instructions simulated : ctaid=(5,1,0) tid=(14,5,0)
GPGPU-Sim PTX: 6800000 instructions simulated : ctaid=(11,0,0) tid=(14,1,0)
GPGPU-Sim uArch: cycles simulated: 22000  inst.: 6719078 (ipc=305.4) sim_rate=98809 (inst/sec) elapsed = 0:0:01:08 / Wed May 13 20:55:04 2015
GPGPU-Sim PTX: 6900000 instructions simulated : ctaid=(8,0,0) tid=(2,5,0)
GPGPU-Sim PTX: 7000000 instructions simulated : ctaid=(0,0,0) tid=(2,1,0)
GPGPU-Sim PTX: 7100000 instructions simulated : ctaid=(4,0,0) tid=(10,1,0)
GPGPU-Sim uArch: cycles simulated: 22500  inst.: 6936774 (ipc=308.3) sim_rate=100532 (inst/sec) elapsed = 0:0:01:09 / Wed May 13 20:55:05 2015
GPGPU-Sim PTX: 7200000 instructions simulated : ctaid=(5,0,0) tid=(11,4,0)
GPGPU-Sim PTX: 7300000 instructions simulated : ctaid=(1,0,0) tid=(1,3,0)
GPGPU-Sim uArch: cycles simulated: 23000  inst.: 7163108 (ipc=311.4) sim_rate=100888 (inst/sec) elapsed = 0:0:01:11 / Wed May 13 20:55:07 2015
GPGPU-Sim PTX: 7400000 instructions simulated : ctaid=(11,1,0) tid=(0,2,0)
GPGPU-Sim PTX: 7500000 instructions simulated : ctaid=(3,0,0) tid=(14,5,0)
GPGPU-Sim uArch: cycles simulated: 23500  inst.: 7386306 (ipc=314.3) sim_rate=101182 (inst/sec) elapsed = 0:0:01:13 / Wed May 13 20:55:09 2015
GPGPU-Sim PTX: 7600000 instructions simulated : ctaid=(7,1,0) tid=(8,4,0)
GPGPU-Sim PTX: 7700000 instructions simulated : ctaid=(12,2,0) tid=(14,6,0)
GPGPU-Sim PTX: 7800000 instructions simulated : ctaid=(12,1,0) tid=(4,6,0)
GPGPU-Sim uArch: cycles simulated: 24000  inst.: 7608032 (ipc=317.0) sim_rate=101440 (inst/sec) elapsed = 0:0:01:15 / Wed May 13 20:55:11 2015
GPGPU-Sim PTX: 7900000 instructions simulated : ctaid=(0,2,0) tid=(9,2,0)
GPGPU-Sim uArch: Shader 0 finished CTA #0 (24289,0), 4 CTAs running
GPGPU-Sim uArch: core:  0, cta: 0 initialized @(24290,0)
GPGPU-Sim PTX: 8000000 instructions simulated : ctaid=(5,1,0) tid=(4,3,0)
GPGPU-Sim uArch: Shader 1 finished CTA #0 (24437,0), 4 CTAs running
GPGPU-Sim uArch: core:  1, cta: 0 initialized @(24438,0)
GPGPU-Sim uArch: Shader 14 finished CTA #0 (24489,0), 4 CTAs running
GPGPU-Sim uArch: core: 14, cta: 0 initialized @(24490,0)
GPGPU-Sim uArch: cycles simulated: 24500  inst.: 7824361 (ipc=319.4) sim_rate=102952 (inst/sec) elapsed = 0:0:01:16 / Wed May 13 20:55:12 2015
GPGPU-Sim uArch: Shader 3 finished CTA #0 (24505,0), 4 CTAs running
GPGPU-Sim uArch: core:  3, cta: 0 initialized @(24506,0)
GPGPU-Sim PTX: 8100000 instructions simulated : ctaid=(14,1,0) tid=(9,0,0)
GPGPU-Sim uArch: Shader 1 finished CTA #1 (24695,0), 4 CTAs running
GPGPU-Sim uArch: core:  1, cta: 1 initialized @(24696,0)
GPGPU-Sim uArch: Shader 0 finished CTA #1 (24706,0), 4 CTAs running
GPGPU-Sim uArch: core:  0, cta: 1 initialized @(24707,0)
GPGPU-Sim PTX: 8200000 instructions simulated : ctaid=(7,3,0) tid=(12,1,0)
GPGPU-Sim uArch: Shader 3 finished CTA #1 (24916,0), 4 CTAs running
GPGPU-Sim uArch: core:  3, cta: 1 initialized @(24917,0)
GPGPU-Sim uArch: cycles simulated: 25000  inst.: 8033079 (ipc=321.3) sim_rate=102988 (inst/sec) elapsed = 0:0:01:18 / Wed May 13 20:55:14 2015
GPGPU-Sim uArch: Shader 2 finished CTA #0 (25011,0), 4 CTAs running
GPGPU-Sim uArch: core:  2, cta: 0 initialized @(25012,0)
GPGPU-Sim PTX: 8300000 instructions simulated : ctaid=(6,2,0) tid=(4,6,0)
GPGPU-Sim uArch: Shader 2 finished CTA #1 (25297,0), 4 CTAs running
GPGPU-Sim uArch: core:  2, cta: 1 initialized @(25298,0)
GPGPU-Sim PTX: 8400000 instructions simulated : ctaid=(12,0,0) tid=(5,2,0)
GPGPU-Sim uArch: cycles simulated: 25500  inst.: 8230939 (ipc=322.8) sim_rate=102886 (inst/sec) elapsed = 0:0:01:20 / Wed May 13 20:55:16 2015
GPGPU-Sim PTX: 8500000 instructions simulated : ctaid=(4,0,0) tid=(0,2,0)
GPGPU-Sim uArch: Shader 0 finished CTA #2 (25807,0), 4 CTAs running
GPGPU-Sim uArch: core:  0, cta: 2 initialized @(25808,0)
GPGPU-Sim uArch: Shader 1 finished CTA #2 (25809,0), 4 CTAs running
GPGPU-Sim uArch: Shader 4 finished CTA #1 (25809,0), 4 CTAs running
GPGPU-Sim uArch: core:  1, cta: 2 initialized @(25810,0)
GPGPU-Sim uArch: core:  4, cta: 1 initialized @(25810,0)
GPGPU-Sim uArch: Shader 3 finished CTA #2 (25845,0), 4 CTAs running
GPGPU-Sim uArch: core:  3, cta: 2 initialized @(25846,0)
GPGPU-Sim PTX: 8600000 instructions simulated : ctaid=(12,0,0) tid=(0,0,0)
GPGPU-Sim uArch: cycles simulated: 26000  inst.: 8412682 (ipc=323.6) sim_rate=102593 (inst/sec) elapsed = 0:0:01:22 / Wed May 13 20:55:18 2015
GPGPU-Sim PTX: 8700000 instructions simulated : ctaid=(7,1,0) tid=(15,2,0)
GPGPU-Sim PTX: 8800000 instructions simulated : ctaid=(8,2,0) tid=(6,0,0)
GPGPU-Sim uArch: cycles simulated: 26500  inst.: 8597804 (ipc=324.4) sim_rate=102354 (inst/sec) elapsed = 0:0:01:24 / Wed May 13 20:55:20 2015
GPGPU-Sim PTX: 8900000 instructions simulated : ctaid=(7,1,0) tid=(3,7,0)
GPGPU-Sim uArch: Shader 2 finished CTA #2 (26781,0), 4 CTAs running
GPGPU-Sim uArch: core:  2, cta: 2 initialized @(26782,0)
GPGPU-Sim PTX: 9000000 instructions simulated : ctaid=(4,3,0) tid=(0,1,0)
GPGPU-Sim uArch: cycles simulated: 27000  inst.: 8780566 (ipc=325.2) sim_rate=102099 (inst/sec) elapsed = 0:0:01:26 / Wed May 13 20:55:22 2015
GPGPU-Sim PTX: 9100000 instructions simulated : ctaid=(10,3,0) tid=(9,5,0)
GPGPU-Sim PTX: 9200000 instructions simulated : ctaid=(11,3,0) tid=(6,7,0)
GPGPU-Sim uArch: cycles simulated: 27500  inst.: 8959535 (ipc=325.8) sim_rate=102983 (inst/sec) elapsed = 0:0:01:27 / Wed May 13 20:55:23 2015
GPGPU-Sim PTX: 9300000 instructions simulated : ctaid=(1,3,0) tid=(2,0,0)
GPGPU-Sim uArch: cycles simulated: 28000  inst.: 9126887 (ipc=326.0) sim_rate=102549 (inst/sec) elapsed = 0:0:01:29 / Wed May 13 20:55:25 2015
GPGPU-Sim PTX: 9400000 instructions simulated : ctaid=(4,0,0) tid=(0,1,0)
GPGPU-Sim uArch: Shader 4 finished CTA #2 (28285,0), 4 CTAs running
GPGPU-Sim uArch: core:  4, cta: 2 initialized @(28286,0)
GPGPU-Sim PTX: 9500000 instructions simulated : ctaid=(9,1,0) tid=(13,7,0)
GPGPU-Sim uArch: cycles simulated: 28500  inst.: 9283857 (ipc=325.7) sim_rate=103153 (inst/sec) elapsed = 0:0:01:30 / Wed May 13 20:55:26 2015
GPGPU-Sim PTX: 9600000 instructions simulated : ctaid=(15,2,0) tid=(11,7,0)
GPGPU-Sim PTX: 9700000 instructions simulated : ctaid=(9,4,0) tid=(11,7,0)
GPGPU-Sim uArch: cycles simulated: 29000  inst.: 9446454 (ipc=325.7) sim_rate=102678 (inst/sec) elapsed = 0:0:01:32 / Wed May 13 20:55:28 2015
GPGPU-Sim uArch: Shader 5 finished CTA #2 (29061,0), 4 CTAs running
GPGPU-Sim uArch: core:  5, cta: 2 initialized @(29062,0)
GPGPU-Sim PTX: 9800000 instructions simulated : ctaid=(14,2,0) tid=(13,6,0)
GPGPU-Sim uArch: Shader 14 finished CTA #2 (29389,0), 4 CTAs running
GPGPU-Sim uArch: core: 14, cta: 2 initialized @(29390,0)
GPGPU-Sim uArch: cycles simulated: 29500  inst.: 9613897 (ipc=325.9) sim_rate=102275 (inst/sec) elapsed = 0:0:01:34 / Wed May 13 20:55:30 2015
GPGPU-Sim PTX: 9900000 instructions simulated : ctaid=(1,4,0) tid=(13,6,0)
GPGPU-Sim PTX: 10000000 instructions simulated : ctaid=(10,4,0) tid=(15,2,0)
GPGPU-Sim uArch: cycles simulated: 30000  inst.: 9776710 (ipc=325.9) sim_rate=102912 (inst/sec) elapsed = 0:0:01:35 / Wed May 13 20:55:31 2015
GPGPU-Sim uArch: Shader 6 finished CTA #2 (30023,0), 4 CTAs running
GPGPU-Sim uArch: core:  6, cta: 2 initialized @(30024,0)
GPGPU-Sim uArch: Shader 8 finished CTA #2 (30176,0), 4 CTAs running
GPGPU-Sim uArch: core:  8, cta: 2 initialized @(30177,0)
GPGPU-Sim PTX: 10100000 instructions simulated : ctaid=(11,1,0) tid=(8,1,0)
GPGPU-Sim PTX: 10200000 instructions simulated : ctaid=(7,2,0) tid=(6,2,0)
GPGPU-Sim uArch: cycles simulated: 30500  inst.: 9934767 (ipc=325.7) sim_rate=102420 (inst/sec) elapsed = 0:0:01:37 / Wed May 13 20:55:33 2015
GPGPU-Sim uArch: Shader 7 finished CTA #2 (30733,0), 4 CTAs running
GPGPU-Sim uArch: core:  7, cta: 2 initialized @(30734,0)
GPGPU-Sim PTX: 10300000 instructions simulated : ctaid=(15,4,0) tid=(13,1,0)
GPGPU-Sim uArch: Shader 3 finished CTA #3 (30785,0), 4 CTAs running
GPGPU-Sim uArch: core:  3, cta: 3 initialized @(30786,0)
GPGPU-Sim uArch: cycles simulated: 31000  inst.: 10099647 (ipc=325.8) sim_rate=102016 (inst/sec) elapsed = 0:0:01:39 / Wed May 13 20:55:35 2015
GPGPU-Sim PTX: 10400000 instructions simulated : ctaid=(5,5,0) tid=(6,7,0)
GPGPU-Sim PTX: 10500000 instructions simulated : ctaid=(8,2,0) tid=(10,7,0)
GPGPU-Sim uArch: Shader 1 finished CTA #3 (31475,0), 4 CTAs running
GPGPU-Sim uArch: core:  1, cta: 3 initialized @(31476,0)
GPGPU-Sim uArch: cycles simulated: 31500  inst.: 10257988 (ipc=325.7) sim_rate=102579 (inst/sec) elapsed = 0:0:01:40 / Wed May 13 20:55:36 2015
GPGPU-Sim PTX: 10600000 instructions simulated : ctaid=(6,4,0) tid=(9,0,0)
GPGPU-Sim PTX: 10700000 instructions simulated : ctaid=(10,5,0) tid=(0,3,0)
GPGPU-Sim uArch: cycles simulated: 32000  inst.: 10423781 (ipc=325.7) sim_rate=102193 (inst/sec) elapsed = 0:0:01:42 / Wed May 13 20:55:38 2015
GPGPU-Sim PTX: 10800000 instructions simulated : ctaid=(10,4,0) tid=(15,7,0)
GPGPU-Sim uArch: cycles simulated: 32500  inst.: 10589732 (ipc=325.8) sim_rate=101824 (inst/sec) elapsed = 0:0:01:44 / Wed May 13 20:55:40 2015
GPGPU-Sim PTX: 10900000 instructions simulated : ctaid=(9,4,0) tid=(13,7,0)
GPGPU-Sim uArch: Shader 4 finished CTA #3 (32740,0), 4 CTAs running
GPGPU-Sim uArch: core:  4, cta: 3 initialized @(32741,0)
GPGPU-Sim PTX: 11000000 instructions simulated : ctaid=(13,4,0) tid=(15,1,0)
GPGPU-Sim uArch: Shader 2 finished CTA #3 (32956,0), 4 CTAs running
GPGPU-Sim uArch: core:  2, cta: 3 initialized @(32957,0)
GPGPU-Sim uArch: cycles simulated: 33000  inst.: 10750038 (ipc=325.8) sim_rate=102381 (inst/sec) elapsed = 0:0:01:45 / Wed May 13 20:55:41 2015
GPGPU-Sim PTX: 11100000 instructions simulated : ctaid=(9,0,0) tid=(15,4,0)
GPGPU-Sim PTX: 11200000 instructions simulated : ctaid=(14,3,0) tid=(6,0,0)
GPGPU-Sim uArch: cycles simulated: 33500  inst.: 10909080 (ipc=325.6) sim_rate=101954 (inst/sec) elapsed = 0:0:01:47 / Wed May 13 20:55:43 2015
GPGPU-Sim uArch: Shader 0 finished CTA #3 (33543,0), 4 CTAs running
GPGPU-Sim uArch: core:  0, cta: 3 initialized @(33544,0)
GPGPU-Sim PTX: 11300000 instructions simulated : ctaid=(8,4,0) tid=(3,5,0)
GPGPU-Sim uArch: cycles simulated: 34000  inst.: 11083867 (ipc=326.0) sim_rate=101686 (inst/sec) elapsed = 0:0:01:49 / Wed May 13 20:55:45 2015
GPGPU-Sim PTX: 11400000 instructions simulated : ctaid=(10,1,0) tid=(8,3,0)
GPGPU-Sim PTX: 11500000 instructions simulated : ctaid=(11,5,0) tid=(5,6,0)
GPGPU-Sim uArch: cycles simulated: 34500  inst.: 11258189 (ipc=326.3) sim_rate=102347 (inst/sec) elapsed = 0:0:01:50 / Wed May 13 20:55:46 2015
GPGPU-Sim PTX: 11600000 instructions simulated : ctaid=(8,2,0) tid=(6,0,0)
GPGPU-Sim PTX: 11700000 instructions simulated : ctaid=(6,1,0) tid=(15,3,0)
GPGPU-Sim uArch: cycles simulated: 35000  inst.: 11421687 (ipc=326.3) sim_rate=101979 (inst/sec) elapsed = 0:0:01:52 / Wed May 13 20:55:48 2015
GPGPU-Sim PTX: 11800000 instructions simulated : ctaid=(3,0,0) tid=(12,0,0)
GPGPU-Sim uArch: cycles simulated: 35500  inst.: 11585339 (ipc=326.3) sim_rate=102525 (inst/sec) elapsed = 0:0:01:53 / Wed May 13 20:55:49 2015
GPGPU-Sim PTX: 11900000 instructions simulated : ctaid=(8,3,0) tid=(4,2,0)
GPGPU-Sim PTX: 12000000 instructions simulated : ctaid=(6,2,0) tid=(7,0,0)
GPGPU-Sim uArch: cycles simulated: 36000  inst.: 11749381 (ipc=326.4) sim_rate=102168 (inst/sec) elapsed = 0:0:01:55 / Wed May 13 20:55:51 2015
GPGPU-Sim PTX: 12100000 instructions simulated : ctaid=(15,3,0) tid=(5,0,0)
GPGPU-Sim uArch: Shader 0 finished CTA #4 (36152,0), 4 CTAs running
GPGPU-Sim uArch: core:  0, cta: 4 initialized @(36153,0)
GPGPU-Sim PTX: 12200000 instructions simulated : ctaid=(0,6,0) tid=(2,7,0)
GPGPU-Sim uArch: cycles simulated: 36500  inst.: 11918634 (ipc=326.5) sim_rate=101868 (inst/sec) elapsed = 0:0:01:57 / Wed May 13 20:55:53 2015
GPGPU-Sim uArch: Shader 5 finished CTA #3 (36659,0), 4 CTAs running
GPGPU-Sim uArch: core:  5, cta: 3 initialized @(36660,0)
GPGPU-Sim PTX: 12300000 instructions simulated : ctaid=(9,2,0) tid=(14,5,0)
GPGPU-Sim PTX: 12400000 instructions simulated : ctaid=(6,1,0) tid=(10,6,0)
GPGPU-Sim uArch: cycles simulated: 37000  inst.: 12085739 (ipc=326.6) sim_rate=101560 (inst/sec) elapsed = 0:0:01:59 / Wed May 13 20:55:55 2015
GPGPU-Sim uArch: Shader 13 finished CTA #0 (37063,0), 4 CTAs running
GPGPU-Sim uArch: core: 13, cta: 0 initialized @(37064,0)
GPGPU-Sim PTX: 12500000 instructions simulated : ctaid=(14,3,0) tid=(8,6,0)
GPGPU-Sim uArch: Shader 4 finished CTA #0 (37266,0), 4 CTAs running
GPGPU-Sim uArch: core:  4, cta: 0 initialized @(37267,0)
GPGPU-Sim uArch: Shader 14 finished CTA #1 (37397,0), 4 CTAs running
GPGPU-Sim uArch: core: 14, cta: 1 initialized @(37398,0)
GPGPU-Sim uArch: cycles simulated: 37500  inst.: 12245431 (ipc=326.5) sim_rate=102045 (inst/sec) elapsed = 0:0:02:00 / Wed May 13 20:55:56 2015
GPGPU-Sim PTX: 12600000 instructions simulated : ctaid=(8,2,0) tid=(0,0,0)
GPGPU-Sim uArch: Shader 1 finished CTA #4 (37759,0), 4 CTAs running
GPGPU-Sim uArch: core:  1, cta: 4 initialized @(37760,0)
GPGPU-Sim PTX: 12700000 instructions simulated : ctaid=(9,4,0) tid=(11,3,0)
GPGPU-Sim uArch: cycles simulated: 38000  inst.: 12400409 (ipc=326.3) sim_rate=101642 (inst/sec) elapsed = 0:0:02:02 / Wed May 13 20:55:58 2015
GPGPU-Sim uArch: Shader 6 finished CTA #1 (38152,0), 4 CTAs running
GPGPU-Sim uArch: core:  6, cta: 1 initialized @(38153,0)
GPGPU-Sim PTX: 12800000 instructions simulated : ctaid=(9,4,0) tid=(13,5,0)
GPGPU-Sim uArch: Shader 7 finished CTA #3 (38385,0), 4 CTAs running
GPGPU-Sim uArch: core:  7, cta: 3 initialized @(38386,0)
GPGPU-Sim PTX: 12900000 instructions simulated : ctaid=(4,6,0) tid=(7,2,0)
GPGPU-Sim uArch: cycles simulated: 38500  inst.: 12561467 (ipc=326.3) sim_rate=102125 (inst/sec) elapsed = 0:0:02:03 / Wed May 13 20:55:59 2015
GPGPU-Sim PTX: 13000000 instructions simulated : ctaid=(11,5,0) tid=(2,7,0)
GPGPU-Sim uArch: Shader 3 finished CTA #4 (38826,0), 4 CTAs running
GPGPU-Sim uArch: core:  3, cta: 4 initialized @(38827,0)
GPGPU-Sim uArch: cycles simulated: 39000  inst.: 12737994 (ipc=326.6) sim_rate=101903 (inst/sec) elapsed = 0:0:02:05 / Wed May 13 20:56:01 2015
GPGPU-Sim uArch: Shader 3 finished CTA #0 (39000,0), 4 CTAs running
GPGPU-Sim uArch: core:  3, cta: 0 initialized @(39001,0)
GPGPU-Sim PTX: 13100000 instructions simulated : ctaid=(1,6,0) tid=(9,0,0)
GPGPU-Sim uArch: Shader 6 finished CTA #3 (39150,0), 4 CTAs running
GPGPU-Sim uArch: core:  6, cta: 3 initialized @(39151,0)
GPGPU-Sim PTX: 13200000 instructions simulated : ctaid=(8,2,0) tid=(4,2,0)
GPGPU-Sim uArch: Shader 8 finished CTA #3 (39353,0), 4 CTAs running
GPGPU-Sim uArch: core:  8, cta: 3 initialized @(39354,0)
GPGPU-Sim uArch: cycles simulated: 39500  inst.: 12902678 (ipc=326.7) sim_rate=101595 (inst/sec) elapsed = 0:0:02:07 / Wed May 13 20:56:03 2015
GPGPU-Sim PTX: 13300000 instructions simulated : ctaid=(2,5,0) tid=(6,4,0)
GPGPU-Sim PTX: 13400000 instructions simulated : ctaid=(8,3,0) tid=(14,6,0)
GPGPU-Sim uArch: cycles simulated: 40000  inst.: 13070797 (ipc=326.8) sim_rate=101324 (inst/sec) elapsed = 0:0:02:09 / Wed May 13 20:56:05 2015
GPGPU-Sim PTX: 13500000 instructions simulated : ctaid=(3,6,0) tid=(7,0,0)
GPGPU-Sim PTX: 13600000 instructions simulated : ctaid=(15,5,0) tid=(13,5,0)
GPGPU-Sim uArch: cycles simulated: 40500  inst.: 13244902 (ipc=327.0) sim_rate=101883 (inst/sec) elapsed = 0:0:02:10 / Wed May 13 20:56:06 2015
GPGPU-Sim uArch: Shader 1 finished CTA #0 (40761,0), 4 CTAs running
GPGPU-Sim uArch: core:  1, cta: 0 initialized @(40762,0)
GPGPU-Sim PTX: 13700000 instructions simulated : ctaid=(1,5,0) tid=(15,5,0)
GPGPU-Sim uArch: Shader 9 finished CTA #3 (40856,0), 4 CTAs running
GPGPU-Sim uArch: core:  9, cta: 3 initialized @(40857,0)
GPGPU-Sim uArch: cycles simulated: 41000  inst.: 13412859 (ipc=327.1) sim_rate=101612 (inst/sec) elapsed = 0:0:02:12 / Wed May 13 20:56:08 2015
GPGPU-Sim PTX: 13800000 instructions simulated : ctaid=(10,0,0) tid=(4,4,0)
GPGPU-Sim uArch: Shader 2 finished CTA #4 (41088,0), 4 CTAs running
GPGPU-Sim uArch: core:  2, cta: 4 initialized @(41089,0)
GPGPU-Sim PTX: 13900000 instructions simulated : ctaid=(5,1,0) tid=(7,3,0)
[...]
GPGPU-Sim uArch: cycles simulated: 539500  inst.: 29002408 (ipc=53.8) sim_rate=25045 (inst/sec) elapsed = 0:0:19:18 / Wed May 13 21:13:14 2015
GPGPU-Sim PTX: 29800000 instructions simulated : ctaid=(6,14,0) tid=(12,1,0)
GPGPU-Sim uArch: cycles simulated: 540000  inst.: 29009380 (ipc=53.7) sim_rate=25029 (inst/sec) elapsed = 0:0:19:19 / Wed May 13 21:13:15 2015
GPGPU-Sim uArch: cycles simulated: 540500  inst.: 29021577 (ipc=53.7) sim_rate=25018 (inst/sec) elapsed = 0:0:19:20 / Wed May 13 21:13:16 2015
GPGPU-Sim uArch: cycles simulated: 541000  inst.: 29027411 (ipc=53.7) sim_rate=25002 (inst/sec) elapsed = 0:0:19:21 / Wed May 13 21:13:17 2015
GPGPU-Sim uArch: cycles simulated: 541500  inst.: 29030778 (ipc=53.6) sim_rate=24983 (inst/sec) elapsed = 0:0:19:22 / Wed May 13 21:13:18 2015
GPGPU-Sim uArch: cycles simulated: 542500  inst.: 29040416 (ipc=53.5) sim_rate=24970 (inst/sec) elapsed = 0:0:19:23 / Wed May 13 21:13:19 2015
GPGPU-Sim uArch: cycles simulated: 543000  inst.: 29045392 (ipc=53.5) sim_rate=24953 (inst/sec) elapsed = 0:0:19:24 / Wed May 13 21:13:20 2015
GPGPU-Sim uArch: cycles simulated: 543500  inst.: 29055786 (ipc=53.5) sim_rate=24940 (inst/sec) elapsed = 0:0:19:25 / Wed May 13 21:13:21 2015
GPGPU-Sim uArch: cycles simulated: 544000  inst.: 29063123 (ipc=53.4) sim_rate=24925 (inst/sec) elapsed = 0:0:19:26 / Wed May 13 21:13:22 2015
GPGPU-Sim uArch: cycles simulated: 544500  inst.: 29065328 (ipc=53.4) sim_rate=24906 (inst/sec) elapsed = 0:0:19:27 / Wed May 13 21:13:23 2015
GPGPU-Sim uArch: cycles simulated: 545500  inst.: 29068308 (ipc=53.3) sim_rate=24887 (inst/sec) elapsed = 0:0:19:28 / Wed May 13 21:13:24 2015
GPGPU-Sim uArch: cycles simulated: 546000  inst.: 29070476 (ipc=53.2) sim_rate=24867 (inst/sec) elapsed = 0:0:19:29 / Wed May 13 21:13:25 2015
GPGPU-Sim uArch: cycles simulated: 546500  inst.: 29072667 (ipc=53.2) sim_rate=24848 (inst/sec) elapsed = 0:0:19:30 / Wed May 13 21:13:26 2015
GPGPU-Sim uArch: cycles simulated: 547000  inst.: 29074966 (ipc=53.2) sim_rate=24829 (inst/sec) elapsed = 0:0:19:31 / Wed May 13 21:13:27 2015
GPGPU-Sim uArch: cycles simulated: 548000  inst.: 29084081 (ipc=53.1) sim_rate=24815 (inst/sec) elapsed = 0:0:19:32 / Wed May 13 21:13:28 2015
GPGPU-Sim uArch: Shader 2 finished CTA #3 (548138,0), 4 CTAs running
GPGPU-Sim uArch: core:  2, cta: 3 initialized @(548139,0)
GPGPU-Sim uArch: cycles simulated: 548500  inst.: 29089393 (ipc=53.0) sim_rate=24799 (inst/sec) elapsed = 0:0:19:33 / Wed May 13 21:13:29 2015
GPGPU-Sim uArch: cycles simulated: 549000  inst.: 29101202 (ipc=53.0) sim_rate=24788 (inst/sec) elapsed = 0:0:19:34 / Wed May 13 21:13:30 2015
GPGPU-Sim PTX: 29900000 instructions simulated : ctaid=(6,14,0) tid=(15,7,0)
GPGPU-Sim uArch: cycles simulated: 549500  inst.: 29116818 (ipc=53.0) sim_rate=24780 (inst/sec) elapsed = 0:0:19:35 / Wed May 13 21:13:31 2015
GPGPU-Sim uArch: cycles simulated: 550000  inst.: 29125390 (ipc=53.0) sim_rate=24766 (inst/sec) elapsed = 0:0:19:36 / Wed May 13 21:13:32 2015
GPGPU-Sim uArch: cycles simulated: 551000  inst.: 29135244 (ipc=52.9) sim_rate=24753 (inst/sec) elapsed = 0:0:19:37 / Wed May 13 21:13:33 2015
GPGPU-Sim uArch: cycles simulated: 551500  inst.: 29147363 (ipc=52.9) sim_rate=24743 (inst/sec) elapsed = 0:0:19:38 / Wed May 13 21:13:34 2015
GPGPU-Sim uArch: cycles simulated: 552000  inst.: 29154142 (ipc=52.8) sim_rate=24727 (inst/sec) elapsed = 0:0:19:39 / Wed May 13 21:13:35 2015
GPGPU-Sim uArch: cycles simulated: 552500  inst.: 29158002 (ipc=52.8) sim_rate=24710 (inst/sec) elapsed = 0:0:19:40 / Wed May 13 21:13:36 2015
GPGPU-Sim uArch: cycles simulated: 553000  inst.: 29162123 (ipc=52.7) sim_rate=24692 (inst/sec) elapsed = 0:0:19:41 / Wed May 13 21:13:37 2015
GPGPU-Sim uArch: cycles simulated: 554000  inst.: 29166520 (ipc=52.6) sim_rate=24675 (inst/sec) elapsed = 0:0:19:42 / Wed May 13 21:13:38 2015
GPGPU-Sim uArch: cycles simulated: 554500  inst.: 29171978 (ipc=52.6) sim_rate=24659 (inst/sec) elapsed = 0:0:19:43 / Wed May 13 21:13:39 2015
GPGPU-Sim uArch: cycles simulated: 555000  inst.: 29176744 (ipc=52.6) sim_rate=24642 (inst/sec) elapsed = 0:0:19:44 / Wed May 13 21:13:40 2015
GPGPU-Sim uArch: cycles simulated: 555500  inst.: 29179362 (ipc=52.5) sim_rate=24623 (inst/sec) elapsed = 0:0:19:45 / Wed May 13 21:13:41 2015
GPGPU-Sim uArch: Shader 4 finished CTA #4 (555837,0), 4 CTAs running
GPGPU-Sim uArch: core:  4, cta: 4 initialized @(555838,0)
GPGPU-Sim uArch: cycles simulated: 556000  inst.: 29181042 (ipc=52.5) sim_rate=24604 (inst/sec) elapsed = 0:0:19:46 / Wed May 13 21:13:42 2015
GPGPU-Sim uArch: cycles simulated: 557000  inst.: 29192672 (ipc=52.4) sim_rate=24593 (inst/sec) elapsed = 0:0:19:47 / Wed May 13 21:13:43 2015
GPGPU-Sim uArch: cycles simulated: 557500  inst.: 29199488 (ipc=52.4) sim_rate=24578 (inst/sec) elapsed = 0:0:19:48 / Wed May 13 21:13:44 2015
GPGPU-Sim PTX: 30000000 instructions simulated : ctaid=(8,14,0) tid=(15,1,0)
GPGPU-Sim uArch: cycles simulated: 558000  inst.: 29202617 (ipc=52.3) sim_rate=24560 (inst/sec) elapsed = 0:0:19:49 / Wed May 13 21:13:45 2015
GPGPU-Sim uArch: cycles simulated: 558500  inst.: 29205875 (ipc=52.3) sim_rate=24542 (inst/sec) elapsed = 0:0:19:50 / Wed May 13 21:13:46 2015
GPGPU-Sim uArch: cycles simulated: 559500  inst.: 29211539 (ipc=52.2) sim_rate=24526 (inst/sec) elapsed = 0:0:19:51 / Wed May 13 21:13:47 2015
GPGPU-Sim uArch: cycles simulated: 560000  inst.: 29220430 (ipc=52.2) sim_rate=24513 (inst/sec) elapsed = 0:0:19:52 / Wed May 13 21:13:48 2015
GPGPU-Sim uArch: cycles simulated: 560500  inst.: 29230542 (ipc=52.2) sim_rate=24501 (inst/sec) elapsed = 0:0:19:53 / Wed May 13 21:13:49 2015
GPGPU-Sim uArch: cycles simulated: 561000  inst.: 29233444 (ipc=52.1) sim_rate=24483 (inst/sec) elapsed = 0:0:19:54 / Wed May 13 21:13:50 2015
GPGPU-Sim uArch: cycles simulated: 561500  inst.: 29235576 (ipc=52.1) sim_rate=24464 (inst/sec) elapsed = 0:0:19:55 / Wed May 13 21:13:51 2015
GPGPU-Sim uArch: cycles simulated: 562500  inst.: 29239175 (ipc=52.0) sim_rate=24447 (inst/sec) elapsed = 0:0:19:56 / Wed May 13 21:13:52 2015
GPGPU-Sim uArch: cycles simulated: 563000  inst.: 29241814 (ipc=51.9) sim_rate=24429 (inst/sec) elapsed = 0:0:19:57 / Wed May 13 21:13:53 2015
GPGPU-Sim uArch: cycles simulated: 563500  inst.: 29245553 (ipc=51.9) sim_rate=24411 (inst/sec) elapsed = 0:0:19:58 / Wed May 13 21:13:54 2015
GPGPU-Sim uArch: cycles simulated: 564000  inst.: 29246087 (ipc=51.9) sim_rate=24392 (inst/sec) elapsed = 0:0:19:59 / Wed May 13 21:13:55 2015
GPGPU-Sim uArch: cycles simulated: 565000  inst.: 29246465 (ipc=51.8) sim_rate=24372 (inst/sec) elapsed = 0:0:20:00 / Wed May 13 21:13:56 2015
GPGPU-Sim uArch: cycles simulated: 565500  inst.: 29246779 (ipc=51.7) sim_rate=24352 (inst/sec) elapsed = 0:0:20:01 / Wed May 13 21:13:57 2015
GPGPU-Sim uArch: cycles simulated: 566000  inst.: 29247075 (ipc=51.7) sim_rate=24332 (inst/sec) elapsed = 0:0:20:02 / Wed May 13 21:13:58 2015
GPGPU-Sim uArch: cycles simulated: 566500  inst.: 29247327 (ipc=51.6) sim_rate=24311 (inst/sec) elapsed = 0:0:20:03 / Wed May 13 21:13:59 2015
GPGPU-Sim uArch: cycles simulated: 567500  inst.: 29249040 (ipc=51.5) sim_rate=24293 (inst/sec) elapsed = 0:0:20:04 / Wed May 13 21:14:00 2015
GPGPU-Sim uArch: cycles simulated: 568000  inst.: 29250635 (ipc=51.5) sim_rate=24274 (inst/sec) elapsed = 0:0:20:05 / Wed May 13 21:14:01 2015
GPGPU-Sim uArch: cycles simulated: 568500  inst.: 29252877 (ipc=51.5) sim_rate=24256 (inst/sec) elapsed = 0:0:20:06 / Wed May 13 21:14:02 2015
GPGPU-Sim uArch: cycles simulated: 569000  inst.: 29256731 (ipc=51.4) sim_rate=24239 (inst/sec) elapsed = 0:0:20:07 / Wed May 13 21:14:03 2015
GPGPU-Sim uArch: cycles simulated: 570000  inst.: 29262385 (ipc=51.3) sim_rate=24223 (inst/sec) elapsed = 0:0:20:08 / Wed May 13 21:14:04 2015
GPGPU-Sim uArch: cycles simulated: 570500  inst.: 29264585 (ipc=51.3) sim_rate=24205 (inst/sec) elapsed = 0:0:20:09 / Wed May 13 21:14:05 2015
GPGPU-Sim uArch: cycles simulated: 571000  inst.: 29265279 (ipc=51.3) sim_rate=24186 (inst/sec) elapsed = 0:0:20:10 / Wed May 13 21:14:06 2015
GPGPU-Sim uArch: cycles simulated: 571500  inst.: 29265796 (ipc=51.2) sim_rate=24166 (inst/sec) elapsed = 0:0:20:11 / Wed May 13 21:14:07 2015
GPGPU-Sim uArch: cycles simulated: 572500  inst.: 29267224 (ipc=51.1) sim_rate=24147 (inst/sec) elapsed = 0:0:20:12 / Wed May 13 21:14:08 2015
GPGPU-Sim uArch: cycles simulated: 573000  inst.: 29267546 (ipc=51.1) sim_rate=24128 (inst/sec) elapsed = 0:0:20:13 / Wed May 13 21:14:09 2015
GPGPU-Sim uArch: cycles simulated: 573500  inst.: 29267763 (ipc=51.0) sim_rate=24108 (inst/sec) elapsed = 0:0:20:14 / Wed May 13 21:14:10 2015
GPGPU-Sim uArch: cycles simulated: 574000  inst.: 29268036 (ipc=51.0) sim_rate=24088 (inst/sec) elapsed = 0:0:20:15 / Wed May 13 21:14:11 2015
GPGPU-Sim uArch: cycles simulated: 575000  inst.: 29268746 (ipc=50.9) sim_rate=24069 (inst/sec) elapsed = 0:0:20:16 / Wed May 13 21:14:12 2015
GPGPU-Sim uArch: cycles simulated: 575500  inst.: 29268836 (ipc=50.9) sim_rate=24049 (inst/sec) elapsed = 0:0:20:17 / Wed May 13 21:14:13 2015
GPGPU-Sim uArch: cycles simulated: 576000  inst.: 29268875 (ipc=50.8) sim_rate=24030 (inst/sec) elapsed = 0:0:20:18 / Wed May 13 21:14:14 2015
GPGPU-Sim uArch: cycles simulated: 577000  inst.: 29269027 (ipc=50.7) sim_rate=24010 (inst/sec) elapsed = 0:0:20:19 / Wed May 13 21:14:15 2015
GPGPU-Sim uArch: cycles simulated: 577500  inst.: 29269138 (ipc=50.7) sim_rate=23991 (inst/sec) elapsed = 0:0:20:20 / Wed May 13 21:14:16 2015
GPGPU-Sim uArch: cycles simulated: 578000  inst.: 29269252 (ipc=50.6) sim_rate=23971 (inst/sec) elapsed = 0:0:20:21 / Wed May 13 21:14:17 2015
GPGPU-Sim uArch: cycles simulated: 578500  inst.: 29269407 (ipc=50.6) sim_rate=23952 (inst/sec) elapsed = 0:0:20:22 / Wed May 13 21:14:18 2015
GPGPU-Sim uArch: cycles simulated: 579500  inst.: 29269741 (ipc=50.5) sim_rate=23932 (inst/sec) elapsed = 0:0:20:23 / Wed May 13 21:14:19 2015
GPGPU-Sim uArch: cycles simulated: 580000  inst.: 29270278 (ipc=50.5) sim_rate=23913 (inst/sec) elapsed = 0:0:20:24 / Wed May 13 21:14:20 2015
GPGPU-Sim uArch: cycles simulated: 580500  inst.: 29270788 (ipc=50.4) sim_rate=23894 (inst/sec) elapsed = 0:0:20:25 / Wed May 13 21:14:21 2015
GPGPU-Sim uArch: cycles simulated: 581000  inst.: 29271820 (ipc=50.4) sim_rate=23875 (inst/sec) elapsed = 0:0:20:26 / Wed May 13 21:14:22 2015
GPGPU-Sim uArch: Shader 2 finished CTA #3 (581789,0), 4 CTAs running
GPGPU-Sim uArch: core:  2, cta: 3 initialized @(581790,0)
GPGPU-Sim uArch: cycles simulated: 582000  inst.: 29274004 (ipc=50.3) sim_rate=23858 (inst/sec) elapsed = 0:0:20:27 / Wed May 13 21:14:23 2015
GPGPU-Sim uArch: cycles simulated: 582500  inst.: 29278100 (ipc=50.3) sim_rate=23842 (inst/sec) elapsed = 0:0:20:28 / Wed May 13 21:14:24 2015
GPGPU-Sim uArch: cycles simulated: 583000  inst.: 29283092 (ipc=50.2) sim_rate=23826 (inst/sec) elapsed = 0:0:20:29 / Wed May 13 21:14:25 2015
GPGPU-Sim uArch: cycles simulated: 583500  inst.: 29288212 (ipc=50.2) sim_rate=23811 (inst/sec) elapsed = 0:0:20:30 / Wed May 13 21:14:26 2015
GPGPU-Sim uArch: cycles simulated: 584000  inst.: 29292244 (ipc=50.2) sim_rate=23795 (inst/sec) elapsed = 0:0:20:31 / Wed May 13 21:14:27 2015
GPGPU-Sim PTX: 30100000 instructions simulated : ctaid=(9,14,0) tid=(5,0,0)
GPGPU-Sim uArch: cycles simulated: 585000  inst.: 29306676 (ipc=50.1) sim_rate=23787 (inst/sec) elapsed = 0:0:20:32 / Wed May 13 21:14:28 2015
GPGPU-Sim uArch: cycles simulated: 585500  inst.: 29315838 (ipc=50.1) sim_rate=23776 (inst/sec) elapsed = 0:0:20:33 / Wed May 13 21:14:29 2015
GPGPU-Sim uArch: cycles simulated: 586000  inst.: 29318576 (ipc=50.0) sim_rate=23758 (inst/sec) elapsed = 0:0:20:34 / Wed May 13 21:14:30 2015
GPGPU-Sim uArch: cycles simulated: 586500  inst.: 29322832 (ipc=50.0) sim_rate=23743 (inst/sec) elapsed = 0:0:20:35 / Wed May 13 21:14:31 2015
GPGPU-Sim uArch: cycles simulated: 587000  inst.: 29326768 (ipc=50.0) sim_rate=23727 (inst/sec) elapsed = 0:0:20:36 / Wed May 13 21:14:32 2015
GPGPU-Sim uArch: cycles simulated: 588000  inst.: 29338000 (ipc=49.9) sim_rate=23717 (inst/sec) elapsed = 0:0:20:37 / Wed May 13 21:14:33 2015
GPGPU-Sim uArch: cycles simulated: 588500  inst.: 29347740 (ipc=49.9) sim_rate=23705 (inst/sec) elapsed = 0:0:20:38 / Wed May 13 21:14:34 2015
GPGPU-Sim uArch: cycles simulated: 589000  inst.: 29352612 (ipc=49.8) sim_rate=23690 (inst/sec) elapsed = 0:0:20:39 / Wed May 13 21:14:35 2015
GPGPU-Sim uArch: cycles simulated: 589500  inst.: 29355132 (ipc=49.8) sim_rate=23673 (inst/sec) elapsed = 0:0:20:40 / Wed May 13 21:14:36 2015
GPGPU-Sim uArch: cycles simulated: 590000  inst.: 29356770 (ipc=49.8) sim_rate=23655 (inst/sec) elapsed = 0:0:20:41 / Wed May 13 21:14:37 2015
GPGPU-Sim uArch: cycles simulated: 591000  inst.: 29365814 (ipc=49.7) sim_rate=23643 (inst/sec) elapsed = 0:0:20:42 / Wed May 13 21:14:38 2015
GPGPU-Sim uArch: cycles simulated: 591500  inst.: 29370000 (ipc=49.7) sim_rate=23628 (inst/sec) elapsed = 0:0:20:43 / Wed May 13 21:14:39 2015
GPGPU-Sim uArch: cycles simulated: 592000  inst.: 29373530 (ipc=49.6) sim_rate=23612 (inst/sec) elapsed = 0:0:20:44 / Wed May 13 21:14:40 2015
GPGPU-Sim uArch: cycles simulated: 592500  inst.: 29377274 (ipc=49.6) sim_rate=23596 (inst/sec) elapsed = 0:0:20:45 / Wed May 13 21:14:41 2015
GPGPU-Sim uArch: cycles simulated: 593500  inst.: 29385596 (ipc=49.5) sim_rate=23583 (inst/sec) elapsed = 0:0:20:46 / Wed May 13 21:14:42 2015
GPGPU-Sim PTX: 30200000 instructions simulated : ctaid=(9,14,0) tid=(5,2,0)
GPGPU-Sim uArch: cycles simulated: 594000  inst.: 29398076 (ipc=49.5) sim_rate=23575 (inst/sec) elapsed = 0:0:20:47 / Wed May 13 21:14:43 2015
GPGPU-Sim uArch: cycles simulated: 594500  inst.: 29401068 (ipc=49.5) sim_rate=23558 (inst/sec) elapsed = 0:0:20:48 / Wed May 13 21:14:44 2015
GPGPU-Sim uArch: cycles simulated: 595000  inst.: 29403994 (ipc=49.4) sim_rate=23542 (inst/sec) elapsed = 0:0:20:49 / Wed May 13 21:14:45 2015
GPGPU-Sim uArch: cycles simulated: 596000  inst.: 29404056 (ipc=49.3) sim_rate=23523 (inst/sec) elapsed = 0:0:20:50 / Wed May 13 21:14:46 2015
GPGPU-Sim uArch: cycles simulated: 596500  inst.: 29404056 (ipc=49.3) sim_rate=23504 (inst/sec) elapsed = 0:0:20:51 / Wed May 13 21:14:47 2015
GPGPU-Sim uArch: cycles simulated: 597000  inst.: 29404056 (ipc=49.3) sim_rate=23485 (inst/sec) elapsed = 0:0:20:52 / Wed May 13 21:14:48 2015
GPGPU-Sim uArch: cycles simulated: 597500  inst.: 29404056 (ipc=49.2) sim_rate=23466 (inst/sec) elapsed = 0:0:20:53 / Wed May 13 21:14:49 2015
GPGPU-Sim uArch: cycles simulated: 598500  inst.: 29404056 (ipc=49.1) sim_rate=23448 (inst/sec) elapsed = 0:0:20:54 / Wed May 13 21:14:50 2015
GPGPU-Sim uArch: cycles simulated: 599000  inst.: 29404056 (ipc=49.1) sim_rate=23429 (inst/sec) elapsed = 0:0:20:55 / Wed May 13 21:14:51 2015
GPGPU-Sim uArch: cycles simulated: 599500  inst.: 29404056 (ipc=49.0) sim_rate=23410 (inst/sec) elapsed = 0:0:20:56 / Wed May 13 21:14:52 2015
GPGPU-Sim uArch: cycles simulated: 600500  inst.: 29404056 (ipc=49.0) sim_rate=23392 (inst/sec) elapsed = 0:0:20:57 / Wed May 13 21:14:53 2015
GPGPU-Sim uArch: cycles simulated: 601000  inst.: 29404056 (ipc=48.9) sim_rate=23373 (inst/sec) elapsed = 0:0:20:58 / Wed May 13 21:14:54 2015
GPGPU-Sim uArch: cycles simulated: 601500  inst.: 29404056 (ipc=48.9) sim_rate=23355 (inst/sec) elapsed = 0:0:20:59 / Wed May 13 21:14:55 2015
GPGPU-Sim uArch: cycles simulated: 602000  inst.: 29404056 (ipc=48.8) sim_rate=23336 (inst/sec) elapsed = 0:0:21:00 / Wed May 13 21:14:56 2015
GPGPU-Sim uArch: cycles simulated: 603000  inst.: 29404056 (ipc=48.8) sim_rate=23318 (inst/sec) elapsed = 0:0:21:01 / Wed May 13 21:14:57 2015
GPGPU-Sim uArch: cycles simulated: 603500  inst.: 29404056 (ipc=48.7) sim_rate=23299 (inst/sec) elapsed = 0:0:21:02 / Wed May 13 21:14:58 2015
GPGPU-Sim uArch: cycles simulated: 604000  inst.: 29404056 (ipc=48.7) sim_rate=23281 (inst/sec) elapsed = 0:0:21:03 / Wed May 13 21:14:59 2015
GPGPU-Sim uArch: cycles simulated: 605000  inst.: 29404056 (ipc=48.6) sim_rate=23262 (inst/sec) elapsed = 0:0:21:04 / Wed May 13 21:15:00 2015
GPGPU-Sim uArch: cycles simulated: 605500  inst.: 29404056 (ipc=48.6) sim_rate=23244 (inst/sec) elapsed = 0:0:21:05 / Wed May 13 21:15:01 2015
GPGPU-Sim uArch: cycles simulated: 606000  inst.: 29404056 (ipc=48.5) sim_rate=23225 (inst/sec) elapsed = 0:0:21:06 / Wed May 13 21:15:02 2015
GPGPU-Sim uArch: cycles simulated: 606500  inst.: 29404056 (ipc=48.5) sim_rate=23207 (inst/sec) elapsed = 0:0:21:07 / Wed May 13 21:15:03 2015
GPGPU-Sim uArch: cycles simulated: 607500  inst.: 29404056 (ipc=48.4) sim_rate=23189 (inst/sec) elapsed = 0:0:21:08 / Wed May 13 21:15:04 2015
GPGPU-Sim uArch: cycles simulated: 608000  inst.: 29404056 (ipc=48.4) sim_rate=23171 (inst/sec) elapsed = 0:0:21:09 / Wed May 13 21:15:05 2015
GPGPU-Sim uArch: cycles simulated: 608500  inst.: 29404056 (ipc=48.3) sim_rate=23152 (inst/sec) elapsed = 0:0:21:10 / Wed May 13 21:15:06 2015
GPGPU-Sim uArch: cycles simulated: 609500  inst.: 29404056 (ipc=48.2) sim_rate=23134 (inst/sec) elapsed = 0:0:21:11 / Wed May 13 21:15:07 2015
GPGPU-Sim uArch: cycles simulated: 610000  inst.: 29404056 (ipc=48.2) sim_rate=23116 (inst/sec) elapsed = 0:0:21:12 / Wed May 13 21:15:08 2015
GPGPU-Sim uArch: cycles simulated: 610500  inst.: 29404056 (ipc=48.2) sim_rate=23098 (inst/sec) elapsed = 0:0:21:13 / Wed May 13 21:15:09 2015
GPGPU-Sim uArch: cycles simulated: 611000  inst.: 29404056 (ipc=48.1) sim_rate=23080 (inst/sec) elapsed = 0:0:21:14 / Wed May 13 21:15:10 2015
GPGPU-Sim uArch: cycles simulated: 612000  inst.: 29404056 (ipc=48.0) sim_rate=23062 (inst/sec) elapsed = 0:0:21:15 / Wed May 13 21:15:11 2015
GPGPU-Sim uArch: cycles simulated: 612500  inst.: 29404056 (ipc=48.0) sim_rate=23043 (inst/sec) elapsed = 0:0:21:16 / Wed May 13 21:15:12 2015
GPGPU-Sim uArch: cycles simulated: 613000  inst.: 29404056 (ipc=48.0) sim_rate=23025 (inst/sec) elapsed = 0:0:21:17 / Wed May 13 21:15:13 2015
GPGPU-Sim uArch: cycles simulated: 614000  inst.: 29404056 (ipc=47.9) sim_rate=23007 (inst/sec) elapsed = 0:0:21:18 / Wed May 13 21:15:14 2015
GPGPU-Sim uArch: cycles simulated: 614500  inst.: 29404056 (ipc=47.9) sim_rate=22989 (inst/sec) elapsed = 0:0:21:19 / Wed May 13 21:15:15 2015
GPGPU-Sim uArch: cycles simulated: 615000  inst.: 29404056 (ipc=47.8) sim_rate=22971 (inst/sec) elapsed = 0:0:21:20 / Wed May 13 21:15:16 2015
GPGPU-Sim uArch: cycles simulated: 615500  inst.: 29404056 (ipc=47.8) sim_rate=22953 (inst/sec) elapsed = 0:0:21:21 / Wed May 13 21:15:17 2015
GPGPU-Sim uArch: cycles simulated: 616500  inst.: 29404056 (ipc=47.7) sim_rate=22936 (inst/sec) elapsed = 0:0:21:22 / Wed May 13 21:15:18 2015
GPGPU-Sim uArch: cycles simulated: 617000  inst.: 29404056 (ipc=47.7) sim_rate=22918 (inst/sec) elapsed = 0:0:21:23 / Wed May 13 21:15:19 2015
GPGPU-Sim uArch: cycles simulated: 617500  inst.: 29404056 (ipc=47.6) sim_rate=22900 (inst/sec) elapsed = 0:0:21:24 / Wed May 13 21:15:20 2015
GPGPU-Sim uArch: cycles simulated: 618000  inst.: 29404056 (ipc=47.6) sim_rate=22882 (inst/sec) elapsed = 0:0:21:25 / Wed May 13 21:15:21 2015
GPGPU-Sim uArch: cycles simulated: 619000  inst.: 29404056 (ipc=47.5) sim_rate=22864 (inst/sec) elapsed = 0:0:21:26 / Wed May 13 21:15:22 2015
GPGPU-Sim uArch: cycles simulated: 619500  inst.: 29404056 (ipc=47.5) sim_rate=22846 (inst/sec) elapsed = 0:0:21:27 / Wed May 13 21:15:23 2015
GPGPU-Sim uArch: cycles simulated: 620000  inst.: 29404056 (ipc=47.4) sim_rate=22829 (inst/sec) elapsed = 0:0:21:28 / Wed May 13 21:15:24 2015


GPGPU-Sim uArch: ERROR ** deadlock detected: last writeback core 2 @ gpu_sim_cycle 595476 (+ gpu_tot_sim_cycle 4294347296) (24524 cycles ago)
GPGPU-Sim uArch: DEADLOCK  shader cores no longer committing instructions [core(# threads)]:
GPGPU-Sim uArch: DEADLOCK  0(352) 1(384) 2(352) 3(544) 4(544) 5(384) 6(448) 7(576)  + others ...  + others ...  + others ...  + others ...  + others ...  + others ...  + others ... 

Re-run the simulator in gdb and use debug routines in .gdbinit to debug this
