

        *** GPGPU-Sim Simulator Version 3.2.2  [build 0] ***


GPGPU-Sim PTX: simulation mode 0 (can change with PTX_SIM_MODE_FUNC environment variable:
               1=functional simulation only, 0=detailed performance simulator)
GPGPU-Sim: Configuration options:

-network_mode                           1 # Interconnection network mode
-inter_config_file   config_fermi_islip.icnt # Interconnection network config file
-gpgpu_ptx_use_cuobjdump                    1 # Use cuobjdump to extract ptx and sass from binaries
-gpgpu_experimental_lib_support                    0 # Try to extract code from cuda libraries [Broken because of unknown cudaGetExportTable]
-gpgpu_ptx_convert_to_ptxplus                    0 # Convert SASS (native ISA) to ptxplus and run ptxplus
-gpgpu_ptx_force_max_capability                   20 # Force maximum compute capability
-gpgpu_ptx_inst_debug_to_file                    0 # Dump executed instructions' debug information to file
-gpgpu_ptx_inst_debug_file       inst_debug.txt # Executed instructions' debug output file
-gpgpu_ptx_inst_debug_thread_uid                    1 # Thread UID for executed instructions' debug output
-gpgpu_simd_model                       1 # 1 = post-dominator
-gpgpu_shader_core_pipeline              1536:32 # shader core pipeline config, i.e., {<nthread>:<warpsize>}
-gpgpu_tex_cache:l1  4:128:24,L:R:m:N:L,F:128:4,128:2 # per-shader L1 texture cache  (READ-ONLY) config  {<nsets>:<bsize>:<assoc>,<rep>:<wr>:<alloc>:<wr_alloc>,<mshr>:<N>:<merge>,<mq>:<rf>}
-gpgpu_const_cache:l1 64:64:2,L:R:f:N:L,A:2:32,4 # per-shader L1 constant memory cache  (READ-ONLY) config  {<nsets>:<bsize>:<assoc>,<rep>:<wr>:<alloc>:<wr_alloc>,<mshr>:<N>:<merge>,<mq>} 
-gpgpu_cache:il1     4:128:4,L:R:f:N:L,A:2:32,4 # shader L1 instruction cache config  {<nsets>:<bsize>:<assoc>,<rep>:<wr>:<alloc>:<wr_alloc>,<mshr>:<N>:<merge>,<mq>} 
-gpgpu_cache:dl1     32:128:4,L:L:m:N:H,A:32:8,8 # per-shader L1 data cache config  {<nsets>:<bsize>:<assoc>,<rep>:<wr>:<alloc>:<wr_alloc>,<mshr>:<N>:<merge>,<mq> | none}
-gpgpu_cache:dl1PrefL1                 none # per-shader L1 data cache config  {<nsets>:<bsize>:<assoc>,<rep>:<wr>:<alloc>:<wr_alloc>,<mshr>:<N>:<merge>,<mq> | none}
-gpgpu_cache:dl1PreShared                 none # per-shader L1 data cache config  {<nsets>:<bsize>:<assoc>,<rep>:<wr>:<alloc>:<wr_alloc>,<mshr>:<N>:<merge>,<mq> | none}
-gmem_skip_L1D                          0 # global memory access skip L1D cache (implements -Xptxas -dlcm=cg, default=no skip)
-gpgpu_perfect_mem                      0 # enable perfect memory mode (no cache miss)
-n_regfile_gating_group                    4 # group of lanes that should be read/written together)
-gpgpu_clock_gated_reg_file                    0 # enable clock gated reg file for power calculations
-gpgpu_clock_gated_lanes                    0 # enable clock gated lanes for power calculations
-gpgpu_shader_registers                32768 # Number of registers per shader core. Limits number of concurrent CTAs. (default 8192)
-gpgpu_shader_cta                       8 # Maximum number of concurrent CTAs in shader (default 8)
-gpgpu_num_cta_barriers                   16 # Maximum number of named barriers per CTA (default 16)
-gpgpu_n_clusters                      15 # number of processing clusters
-gpgpu_n_cores_per_cluster                    1 # number of simd cores per cluster
-gpgpu_n_cluster_ejection_buffer_size                    8 # number of packets in ejection buffer
-gpgpu_n_ldst_response_buffer_size                    2 # number of response packets in ld/st unit ejection buffer
-gpgpu_shmem_size                   16384 # Size of shared memory per shader core (default 16kB)
-gpgpu_shmem_size                   49152 # Size of shared memory per shader core (default 16kB)
-gpgpu_shmem_size_PrefL1                16384 # Size of shared memory per shader core (default 16kB)
-gpgpu_shmem_size_PrefShared                16384 # Size of shared memory per shader core (default 16kB)
-gpgpu_shmem_num_banks                   32 # Number of banks in the shared memory in each shader core (default 16)
-gpgpu_shmem_limited_broadcast                    0 # Limit shared memory to do one broadcast per cycle (default on)
-gpgpu_shmem_warp_parts                    1 # Number of portions a warp is divided into for shared memory bank conflict check 
-gpgpu_warpdistro_shader                   -1 # Specify which shader core to collect the warp size distribution from
-gpgpu_warp_issue_shader                    0 # Specify which shader core to collect the warp issue distribution from
-gpgpu_local_mem_map                    1 # Mapping from local memory space address to simulated GPU physical address space (default = enabled)
-gpgpu_num_reg_banks                   16 # Number of register banks (default = 8)
-gpgpu_reg_bank_use_warp_id                    0 # Use warp ID in mapping registers to banks (default = off)
-gpgpu_operand_collector_num_units_sp                    6 # number of collector units (default = 4)
-gpgpu_operand_collector_num_units_sfu                    8 # number of collector units (default = 4)
-gpgpu_operand_collector_num_units_mem                    2 # number of collector units (default = 2)
-gpgpu_operand_collector_num_units_gen                    0 # number of collector units (default = 0)
-gpgpu_operand_collector_num_in_ports_sp                    2 # number of collector unit in ports (default = 1)
-gpgpu_operand_collector_num_in_ports_sfu                    1 # number of collector unit in ports (default = 1)
-gpgpu_operand_collector_num_in_ports_mem                    1 # number of collector unit in ports (default = 1)
-gpgpu_operand_collector_num_in_ports_gen                    0 # number of collector unit in ports (default = 0)
-gpgpu_operand_collector_num_out_ports_sp                    2 # number of collector unit in ports (default = 1)
-gpgpu_operand_collector_num_out_ports_sfu                    1 # number of collector unit in ports (default = 1)
-gpgpu_operand_collector_num_out_ports_mem                    1 # number of collector unit in ports (default = 1)
-gpgpu_operand_collector_num_out_ports_gen                    0 # number of collector unit in ports (default = 0)
-gpgpu_coalesce_arch                   13 # Coalescing arch (default = 13, anything else is off for now)
-gpgpu_num_sched_per_core                    1 # Number of warp schedulers per core
-gpgpu_max_insn_issue_per_warp                    1 # Max number of instructions that can be issued per warp in one cycle by scheduler
-gpgpu_simt_core_sim_order                    1 # Select the simulation order of cores in a cluster (0=Fix, 1=Round-Robin)
-gpgpu_pipeline_widths        2,1,1,2,1,1,2 # Pipeline widths ID_OC_SP,ID_OC_SFU,ID_OC_MEM,OC_EX_SP,OC_EX_SFU,OC_EX_MEM,EX_WB
-gpgpu_num_sp_units                     2 # Number of SP units (default=1)
-gpgpu_num_sfu_units                    1 # Number of SF units (default=1)
-gpgpu_num_mem_units                    1 # Number if ldst units (default=1) WARNING: not hooked up to anything
-gpgpu_scheduler                      gto # Scheduler configuration: < lrr | gto | two_level_active > If two_level_active:<num_active_warps>:<inner_prioritization>:<outer_prioritization>For complete list of prioritization values see shader.h enum scheduler_prioritization_typeDefault: gto
-gpgpu_dram_scheduler                    1 # 0 = fifo, 1 = FR-FCFS (defaul)
-gpgpu_dram_partition_queues              8:8:8:8 # i2$:$2d:d2$:$2i
-l2_ideal                               0 # Use a ideal L2 cache that always hit
-gpgpu_cache:dl2     64:128:8,L:B:m:W:L,A:32:4,4:0,32 # unified banked L2 data cache config  {<nsets>:<bsize>:<assoc>,<rep>:<wr>:<alloc>:<wr_alloc>,<mshr>:<N>:<merge>,<mq>}
-gpgpu_cache:dl2_texture_only                    0 # L2 cache used for texture only
-gpgpu_n_mem                            6 # number of memory modules (e.g. memory controllers) in gpu
-gpgpu_n_sub_partition_per_mchannel                    2 # number of memory subpartition in each memory module
-gpgpu_n_mem_per_ctrlr                    2 # number of memory chips per memory controller
-gpgpu_memlatency_stat                   14 # track and display latency statistics 0x2 enables MC, 0x4 enables queue logs
-gpgpu_frfcfs_dram_sched_queue_size                   16 # 0 = unlimited (default); # entries per chip
-gpgpu_dram_return_queue_size                  116 # 0 = unlimited (default); # entries per chip
-gpgpu_dram_buswidth                    4 # default = 4 bytes (8 bytes per cycle at DDR)
-gpgpu_dram_burst_length                    8 # Burst length of each DRAM request (default = 4 data bus cycle)
-dram_data_command_freq_ratio                    4 # Frequency ratio between DRAM data bus and command bus (default = 2 times, i.e. DDR)
-gpgpu_dram_timing_opt nbk=16:CCD=2:RRD=6:RCD=12:RAS=28:RP=12:RC=40: CL=12:WL=4:CDLR=5:WR=12:nbkgrp=4:CCDL=3:RTPL=2 # DRAM timing parameters = {nbk:tCCD:tRRD:tRCD:tRAS:tRP:tRC:CL:WL:tCDLR:tWR:nbkgrp:tCCDL:tRTPL}
-rop_latency                          120 # ROP queue latency (default 85)
-dram_latency                         100 # DRAM latency (default 30)
-gpgpu_mem_addr_mapping dramid@8;00000000.00000000.00000000.00000000.0000RRRR.RRRRRRRR.BBBCCCCB.CCSSSSSS # mapping memory address to dram model {dramid@<start bit>;<memory address map>}
-gpgpu_mem_addr_test                    0 # run sweep test to check address mapping for aliased address
-gpgpu_mem_address_mask                    1 # 0 = old addressing mask, 1 = new addressing mask, 2 = new add. mask + flipped bank sel and chip sel bits
-gpuwattch_xml_file  gpuwattch_gtx480.xml # GPUWattch XML file
-power_simulation_enabled                    1 # Turn on power simulator (1=On, 0=Off)
-power_per_cycle_dump                    0 # Dump detailed power output each cycle
-power_trace_enabled                    0 # produce a file for the power trace (1=On, 0=Off)
-power_trace_zlevel                     6 # Compression level of the power trace output log (0=no comp, 9=highest)
-steady_power_levels_enabled                    0 # produce a file for the steady power levels (1=On, 0=Off)
-steady_state_definition                  8:4 # allowed deviation:number of samples
-gpgpu_max_cycle                        0 # terminates gpu simulation early (0 = no limit)
-gpgpu_max_insn                         0 # terminates gpu simulation early (0 = no limit)
-gpgpu_max_cta                          0 # terminates gpu simulation early (0 = no limit)
-gpgpu_runtime_stat                   500 # display runtime statistics such as dram utilization {<freq>:<flag>}
-liveness_message_freq                    1 # Minimum number of seconds between simulation liveness messages (0 = always print)
-gpgpu_flush_l1_cache                    0 # Flush L1 cache at the end of each kernel call
-gpgpu_flush_l2_cache                    0 # Flush L2 cache at the end of each kernel call
-gpgpu_deadlock_detect                    1 # Stop the simulation at deadlock (1=on (default), 0=off)
-gpgpu_ptx_instruction_classification                    0 # if enabled will classify ptx instruction types per kernel (Max 255 kernels now)
-gpgpu_ptx_sim_mode                     0 # Select between Performance (default) or Functional simulation (1)
-gpgpu_clock_domains 700.0:700.0:700.0:924.0 # Clock Domain Frequencies in MhZ {<Core Clock>:<ICNT Clock>:<L2 Clock>:<DRAM Clock>}
-gpgpu_max_concurrent_kernel                    8 # maximum kernels that can run concurrently on GPU
-gpgpu_cflog_interval                    0 # Interval between each snapshot in control flow logger
-visualizer_enabled                     0 # Turn on visualizer output (1=On, 0=Off)
-visualizer_outputfile                 NULL # Specifies the output log file for visualizer
-visualizer_zlevel                      6 # Compression level of the visualizer output log (0=no comp, 9=highest)
-trace_enabled                          0 # Turn on traces
-trace_components                    none # comma seperated list of traces to enable. Complete list found in trace_streams.tup. Default none
-trace_sampling_core                    0 # The core which is printed using CORE_DPRINTF. Default 0
-trace_sampling_memory_partition                   -1 # The memory partition which is printed using MEMPART_DPRINTF. Default -1 (i.e. all)
-enable_ptx_file_line_stats                    1 # Turn on PTX source line statistic profiling. (1 = On)
-ptx_line_stats_filename gpgpu_inst_stats.txt # Output file for PTX source line statistics.
-save_embedded_ptx                      0 # saves ptx files embedded in binary as <n>.ptx
-keep                                   0 # keep intermediate files created by GPGPU-Sim when interfacing with external programs
-gpgpu_ptx_save_converted_ptxplus                    0 # Saved converted ptxplus to a file
-ptx_opcode_latency_int         4,13,4,5,145 # Opcode latencies for integers <ADD,MAX,MUL,MAD,DIV>Default 1,1,19,25,145
-ptx_opcode_latency_fp          4,13,4,5,39 # Opcode latencies for single precision floating points <ADD,MAX,MUL,MAD,DIV>Default 1,1,1,1,30
-ptx_opcode_latency_dp         8,19,8,8,330 # Opcode latencies for double precision floating points <ADD,MAX,MUL,MAD,DIV>Default 8,8,8,8,335
-ptx_opcode_initiation_int            1,2,2,1,8 # Opcode initiation intervals for integers <ADD,MAX,MUL,MAD,DIV>Default 1,1,4,4,32
-ptx_opcode_initiation_fp            1,2,1,1,4 # Opcode initiation intervals for single precision floating points <ADD,MAX,MUL,MAD,DIV>Default 1,1,1,1,5
-ptx_opcode_initiation_dp         8,16,8,8,130 # Opcode initiation intervals for double precision floating points <ADD,MAX,MUL,MAD,DIV>Default 8,8,8,8,130
DRAM Timing Options:
nbk                                    16 # number of banks
CCD                                     2 # column to column delay
RRD                                     6 # minimal delay between activation of rows in different banks
RCD                                    12 # row to column delay
RAS                                    28 # time needed to activate row
RP                                     12 # time needed to precharge (deactivate) row
RC                                     40 # row cycle time
CDLR                                    5 # switching from write to read (changes tWTR)
WR                                     12 # last data-in to row precharge
CL                                     12 # CAS latency
WL                                      4 # Write latency
nbkgrp                                  4 # number of bank groups
CCDL                                    3 # column to column delay between accesses to different bank groups
RTPL                                    2 # read to precharge delay between accesses to different bank groups
Total number of memory sub partition = 12
addr_dec_mask[CHIP]  = 0000000000000000 	high:64 low:0
addr_dec_mask[BK]    = 000000000000e100 	high:16 low:8
addr_dec_mask[ROW]   = 000000000fff0000 	high:28 low:16
addr_dec_mask[COL]   = 0000000000001eff 	high:13 low:0
addr_dec_mask[BURST] = 000000000000003f 	high:6 low:0
sub_partition_id_mask = 0000000000000100
GPGPU-Sim uArch: clock freqs: 700000000.000000:700000000.000000:700000000.000000:924000000.000000
GPGPU-Sim uArch: clock periods: 0.00000000142857142857:0.00000000142857142857:0.00000000142857142857:0.00000000108225108225
*** Initializing Memory Statistics ***
GPGPU-Sim uArch: interconnect node map (shaderID+MemID to icntID)
GPGPU-Sim uArch: Memory nodes ID start from index: 15
GPGPU-Sim uArch:    0   1   2   3   4
GPGPU-Sim uArch:    5   6   7   8   9
GPGPU-Sim uArch:   10  11  12  13  14
GPGPU-Sim uArch:   15  16  17  18  19
GPGPU-Sim uArch:   20  21  22  23  24
GPGPU-Sim uArch:   25  26
GPGPU-Sim uArch: interconnect node reverse map (icntID to shaderID+MemID)
GPGPU-Sim uArch: Memory nodes start from ID: 15
GPGPU-Sim uArch:    0   1   2   3   4
GPGPU-Sim uArch:    5   6   7   8   9
GPGPU-Sim uArch:   10  11  12  13  14
GPGPU-Sim uArch:   15  16  17  18  19
GPGPU-Sim uArch:   20  21  22  23  24
GPGPU-Sim uArch:   25  26
62f7c84b053e7125f7dedfb6f8cd2ad7  /home/kishore/project_source/gpu_class_proj/gpgpusim-benchmarks-master/bin/release/RAY
GPGPU-Sim uArch: performance model initialization complete.
GPGPU-Sim PTX: __cudaRegisterFatBinary, fat_cubin_handle = 1, filename=rayTracing.cu
self exe links to: /home/kishore/project_source/gpu_class_proj/gpgpusim-benchmarks-master/bin/release/RAY
Running md5sum using "md5sum /home/kishore/project_source/gpu_class_proj/gpgpusim-benchmarks-master/bin/release/RAY "
Running cuobjdump using "$CUDA_INSTALL_PATH/bin/cuobjdump -ptx -elf -sass /home/kishore/project_source/gpu_class_proj/gpgpusim-benchmarks-master/bin/release/RAY > _cuobjdump_complete_output_FlNvpo"
Parsing file _cuobjdump_complete_output_FlNvpo
######### cuobjdump parser ########
## Adding new section PTX
Adding ptx filename: _cuobjdump_1.ptx
Adding arch: sm_10
Adding identifier: rayTracing.cu
## Adding new section ELF
Adding arch: sm_10
Adding identifier: rayTracing.cu
## Adding new section ELF
Adding arch: sm_20
Adding identifier: rayTracing.cu
## Adding new section PTX
Adding ptx filename: _cuobjdump_2.ptx
Adding arch: sm_20
Adding identifier: rayTracing.cu
Done parsing!!!
GPGPU-Sim PTX: __cudaRegisterFunction _Z6renderPjP4Nodejjff : hostFun 0x0x40a280, fat_cubin_handle = 1
GPGPU-Sim PTX: allocating stack frame region for .param "__cudaretf__Zmi6float3S_" from 0x0 to 0xc
GPGPU-Sim PTX: allocating stack frame region for .param "__cudaparmf1__Zmi6float3S_" from 0xc to 0x18
GPGPU-Sim PTX: allocating stack frame region for .param "__cudaparmf2__Zmi6float3S_" from 0x18 to 0x24
GPGPU-Sim PTX: allocating stack frame region for .param "__cudaretf__Z9normalize6float3" from 0x0 to 0xc
GPGPU-Sim PTX: allocating stack frame region for .param "__cudaparmf1__Z9normalize6float3" from 0xc to 0x18
GPGPU-Sim PTX: allocating stack frame region for .param "__cudaretf__Z18intersectionSphere5Rayon6float3f" from 0x0 to 0x4
GPGPU-Sim PTX: allocating stack frame region for .param "__cudaparmf1__Z18intersectionSphere5Rayon6float3f" from 0x4 to 0x1c
GPGPU-Sim PTX: allocating stack frame region for .param "__cudaparmf2__Z18intersectionSphere5Rayon6float3f" from 0x1c to 0x28
GPGPU-Sim PTX: allocating stack frame region for .param "__cudaparmf3__Z18intersectionSphere5Rayon6float3f" from 0x28 to 0x2c
GPGPU-Sim PTX: allocating stack frame region for .param "__cudaretf__Z16intersectionPlan5Rayon6float3S0_" from 0x0 to 0x4
GPGPU-Sim PTX: allocating stack frame region for .param "__cudaparmf1__Z16intersectionPlan5Rayon6float3S0_" from 0x4 to 0x1c
GPGPU-Sim PTX: allocating stack frame region for .param "__cudaparmf2__Z16intersectionPlan5Rayon6float3S0_" from 0x1c to 0x28
GPGPU-Sim PTX: allocating stack frame region for .param "__cudaparmf3__Z16intersectionPlan5Rayon6float3S0_" from 0x28 to 0x34
GPGPU-Sim PTX: allocating stack frame region for .param "__cudaretf__Z10getNormale6float3S_" from 0x0 to 0xc
GPGPU-Sim PTX: allocating stack frame region for .param "__cudaparmf1__Z10getNormale6float3S_" from 0xc to 0x18
GPGPU-Sim PTX: allocating stack frame region for .param "__cudaparmf2__Z10getNormale6float3S_" from 0x18 to 0x24
GPGPU-Sim PTX: allocating stack frame region for .param "__cudaretf__Z11getNormaleP6float3" from 0x0 to 0xc
GPGPU-Sim PTX: allocating stack frame region for .param "__cudaparmf1__Z11getNormaleP6float3" from 0xc to 0x18
GPGPU-Sim PTX: allocating stack frame region for .param "__cudaretf__Z14rgbaFloatToInt6float4" from 0x0 to 0x4
GPGPU-Sim PTX: allocating stack frame region for .param "__cudaparmf1__Z14rgbaFloatToInt6float4" from 0x4 to 0x14
GPGPU-Sim PTX: allocating stack frame region for .param "__cudaretf__Z12notShadowRayP4Node6float3S1_f" from 0x0 to 0x4
GPGPU-Sim PTX: allocating stack frame region for .param "__cudaparmf1__Z12notShadowRayP4Node6float3S1_f" from 0x4 to 0xc
GPGPU-Sim PTX: allocating stack frame region for .param "__cudaparmf2__Z12notShadowRayP4Node6float3S1_f" from 0xc to 0x18
GPGPU-Sim PTX: allocating stack frame region for .param "__cudaparmf3__Z12notShadowRayP4Node6float3S1_f" from 0x18 to 0x24
GPGPU-Sim PTX: allocating stack frame region for .param "__cudaparmf4__Z12notShadowRayP4Node6float3S1_f" from 0x24 to 0x28
GPGPU-Sim PTX: allocating stack frame region for .param "__cudaretf__Z15float2int_pow20f" from 0x0 to 0x4
GPGPU-Sim PTX: allocating stack frame region for .param "__cudaparmf1__Z15float2int_pow20f" from 0x4 to 0x8
GPGPU-Sim PTX: allocating stack frame region for .param "__cudaretf__Z15float2int_pow50f" from 0x0 to 0x4
GPGPU-Sim PTX: allocating stack frame region for .param "__cudaparmf1__Z15float2int_pow50f" from 0x4 to 0x8
GPGPU-Sim PTX: allocating stack frame region for .param "__cudaparmf1__ZN4dim3C1Ejjj" from 0x0 to 0x8
GPGPU-Sim PTX: allocating stack frame region for .param "__cudaparmf2__ZN4dim3C1Ejjj" from 0x8 to 0xc
GPGPU-Sim PTX: allocating stack frame region for .param "__cudaparmf3__ZN4dim3C1Ejjj" from 0xc to 0x10
GPGPU-Sim PTX: allocating stack frame region for .param "__cudaparmf4__ZN4dim3C1Ejjj" from 0x10 to 0x14
GPGPU-Sim PTX: instruction assembly for function '_Zmi6float3S_'...   done.
GPGPU-Sim PTX: finding reconvergence points for '_Zmi6float3S_'...
GPGPU-Sim PTX: Finding dominators for '_Zmi6float3S_'...
GPGPU-Sim PTX: Finding immediate dominators for '_Zmi6float3S_'...
GPGPU-Sim PTX: Finding postdominators for '_Zmi6float3S_'...
GPGPU-Sim PTX: Finding immediate postdominators for '_Zmi6float3S_'...
GPGPU-Sim PTX: pre-decoding instructions for '_Zmi6float3S_'...
GPGPU-Sim PTX: reconvergence points for _Zmi6float3S_...
GPGPU-Sim PTX: ... end of reconvergence points for _Zmi6float3S_
GPGPU-Sim PTX: ... done pre-decoding instructions for '_Zmi6float3S_'.
GPGPU-Sim PTX: instruction assembly for function '_Z9normalize6float3'...   done.
GPGPU-Sim PTX: finding reconvergence points for '_Z9normalize6float3'...
GPGPU-Sim PTX: Finding dominators for '_Z9normalize6float3'...
GPGPU-Sim PTX: Finding immediate dominators for '_Z9normalize6float3'...
GPGPU-Sim PTX: Finding postdominators for '_Z9normalize6float3'...
GPGPU-Sim PTX: Finding immediate postdominators for '_Z9normalize6float3'...
GPGPU-Sim PTX: pre-decoding instructions for '_Z9normalize6float3'...
GPGPU-Sim PTX: reconvergence points for _Z9normalize6float3...
GPGPU-Sim PTX: ... end of reconvergence points for _Z9normalize6float3
GPGPU-Sim PTX: ... done pre-decoding instructions for '_Z9normalize6float3'.
GPGPU-Sim PTX: instruction assembly for function '_Z18intersectionSphere5Rayon6float3f'...   done.
GPGPU-Sim PTX: finding reconvergence points for '_Z18intersectionSphere5Rayon6float3f'...
GPGPU-Sim PTX: Finding dominators for '_Z18intersectionSphere5Rayon6float3f'...
GPGPU-Sim PTX: Finding immediate dominators for '_Z18intersectionSphere5Rayon6float3f'...
GPGPU-Sim PTX: Finding postdominators for '_Z18intersectionSphere5Rayon6float3f'...
GPGPU-Sim PTX: Finding immediate postdominators for '_Z18intersectionSphere5Rayon6float3f'...
GPGPU-Sim PTX: pre-decoding instructions for '_Z18intersectionSphere5Rayon6float3f'...
GPGPU-Sim PTX: reconvergence points for _Z18intersectionSphere5Rayon6float3f...
GPGPU-Sim PTX:  1 (potential) branch divergence @  PC=0x250 (_1.ptx:173) @%p2 bra $Lt_2_3074;
GPGPU-Sim PTX:    immediate post dominator      @  PC=0x2c0 (_1.ptx:193) mov.f32 %f39, %f32;
GPGPU-Sim PTX:  2 (potential) branch divergence @  PC=0x260 (_1.ptx:175) bra.uni $Lt_2_2818;
GPGPU-Sim PTX:    immediate post dominator      @  PC=0x2c0 (_1.ptx:193) mov.f32 %f39, %f32;
GPGPU-Sim PTX:  3 (potential) branch divergence @  PC=0x280 (_1.ptx:180) @!%p3 bra $Lt_2_3586;
GPGPU-Sim PTX:    immediate post dominator      @  PC=0x2c0 (_1.ptx:193) mov.f32 %f39, %f32;
GPGPU-Sim PTX:  4 (potential) branch divergence @  PC=0x290 (_1.ptx:182) bra.uni $Lt_2_3330;
GPGPU-Sim PTX:    immediate post dominator      @  PC=0x2c0 (_1.ptx:193) mov.f32 %f39, %f32;
GPGPU-Sim PTX: ... end of reconvergence points for _Z18intersectionSphere5Rayon6float3f
GPGPU-Sim PTX: ... done pre-decoding instructions for '_Z18intersectionSphere5Rayon6float3f'.
GPGPU-Sim PTX: instruction assembly for function '_Z16intersectionPlan5Rayon6float3S0_'...   done.
GPGPU-Sim PTX: finding reconvergence points for '_Z16intersectionPlan5Rayon6float3S0_'...
GPGPU-Sim PTX: Finding dominators for '_Z16intersectionPlan5Rayon6float3S0_'...
GPGPU-Sim PTX: Finding immediate dominators for '_Z16intersectionPlan5Rayon6float3S0_'...
GPGPU-Sim PTX: Finding postdominators for '_Z16intersectionPlan5Rayon6float3S0_'...
GPGPU-Sim PTX: Finding immediate postdominators for '_Z16intersectionPlan5Rayon6float3S0_'...
GPGPU-Sim PTX: pre-decoding instructions for '_Z16intersectionPlan5Rayon6float3S0_'...
GPGPU-Sim PTX: reconvergence points for _Z16intersectionPlan5Rayon6float3S0_...
GPGPU-Sim PTX:  1 (potential) branch divergence @  PC=0x320 (_1.ptx:214) @!%p1 bra $Lt_3_2050;
GPGPU-Sim PTX:    immediate post dominator      @  PC=0x368 (_1.ptx:227) mov.f32 %f14, %f9;
GPGPU-Sim PTX:  2 (potential) branch divergence @  PC=0x330 (_1.ptx:216) bra.uni $Lt_3_1794;
GPGPU-Sim PTX:    immediate post dominator      @  PC=0x368 (_1.ptx:227) mov.f32 %f14, %f9;
GPGPU-Sim PTX: ... end of reconvergence points for _Z16intersectionPlan5Rayon6float3S0_
GPGPU-Sim PTX: ... done pre-decoding instructions for '_Z16intersectionPlan5Rayon6float3S0_'.
GPGPU-Sim PTX: instruction assembly for function '_Z10getNormale6float3S_'...   done.
GPGPU-Sim PTX: finding reconvergence points for '_Z10getNormale6float3S_'...
GPGPU-Sim PTX: Finding dominators for '_Z10getNormale6float3S_'...
GPGPU-Sim PTX: Finding immediate dominators for '_Z10getNormale6float3S_'...
GPGPU-Sim PTX: Finding postdominators for '_Z10getNormale6float3S_'...
GPGPU-Sim PTX: Finding immediate postdominators for '_Z10getNormale6float3S_'...
GPGPU-Sim PTX: pre-decoding instructions for '_Z10getNormale6float3S_'...
GPGPU-Sim PTX: reconvergence points for _Z10getNormale6float3S_...
GPGPU-Sim PTX: ... end of reconvergence points for _Z10getNormale6float3S_
GPGPU-Sim PTX: ... done pre-decoding instructions for '_Z10getNormale6float3S_'.
GPGPU-Sim PTX: instruction assembly for function '_Z11getNormaleP6float3'...   done.
GPGPU-Sim PTX: finding reconvergence points for '_Z11getNormaleP6float3'...
GPGPU-Sim PTX: Finding dominators for '_Z11getNormaleP6float3'...
GPGPU-Sim PTX: Finding immediate dominators for '_Z11getNormaleP6float3'...
GPGPU-Sim PTX: Finding postdominators for '_Z11getNormaleP6float3'...
GPGPU-Sim PTX: Finding immediate postdominators for '_Z11getNormaleP6float3'...
GPGPU-Sim PTX: pre-decoding instructions for '_Z11getNormaleP6float3'...
GPGPU-Sim PTX: reconvergence points for _Z11getNormaleP6float3...
GPGPU-Sim PTX: ... end of reconvergence points for _Z11getNormaleP6float3
GPGPU-Sim PTX: ... done pre-decoding instructions for '_Z11getNormaleP6float3'.
GPGPU-Sim PTX: instruction assembly for function '_Z14rgbaFloatToInt6float4'...   done.
GPGPU-Sim PTX: finding reconvergence points for '_Z14rgbaFloatToInt6float4'...
GPGPU-Sim PTX: Finding dominators for '_Z14rgbaFloatToInt6float4'...
GPGPU-Sim PTX: Finding immediate dominators for '_Z14rgbaFloatToInt6float4'...
GPGPU-Sim PTX: Finding postdominators for '_Z14rgbaFloatToInt6float4'...
GPGPU-Sim PTX: Finding immediate postdominators for '_Z14rgbaFloatToInt6float4'...
GPGPU-Sim PTX: pre-decoding instructions for '_Z14rgbaFloatToInt6float4'...
GPGPU-Sim PTX: reconvergence points for _Z14rgbaFloatToInt6float4...
GPGPU-Sim PTX: ... end of reconvergence points for _Z14rgbaFloatToInt6float4
GPGPU-Sim PTX: ... done pre-decoding instructions for '_Z14rgbaFloatToInt6float4'.
GPGPU-Sim PTX: allocating global region for "cnode" from 0x100 to 0x1a0 (global memory space)
GPGPU-Sim PTX: instruction assembly for function '_Z12notShadowRayP4Node6float3S1_f'...   done.
GPGPU-Sim PTX: finding reconvergence points for '_Z12notShadowRayP4Node6float3S1_f'...
GPGPU-Sim PTX: Finding dominators for '_Z12notShadowRayP4Node6float3S1_f'...
GPGPU-Sim PTX: Finding immediate dominators for '_Z12notShadowRayP4Node6float3S1_f'...
GPGPU-Sim PTX: Finding postdominators for '_Z12notShadowRayP4Node6float3S1_f'...
GPGPU-Sim PTX: Finding immediate postdominators for '_Z12notShadowRayP4Node6float3S1_f'...
GPGPU-Sim PTX: pre-decoding instructions for '_Z12notShadowRayP4Node6float3S1_f'...
GPGPU-Sim PTX: reconvergence points for _Z12notShadowRayP4Node6float3S1_f...
GPGPU-Sim PTX:  1 (potential) branch divergence @  PC=0x638 (_1.ptx:364) @%p1 bra $Lt_7_8450;
GPGPU-Sim PTX:    immediate post dominator      @  PC=0x828 (_1.ptx:441) mov.f32 %f58, 0f00000000;    // 0
GPGPU-Sim PTX:  2 (potential) branch divergence @  PC=0x658 (_1.ptx:369) @!%p2 bra $Lt_7_8962;
GPGPU-Sim PTX:    immediate post dominator      @  PC=0x6b8 (_1.ptx:385) mov.f32 %f28, %f20;
GPGPU-Sim PTX:  3 (potential) branch divergence @  PC=0x668 (_1.ptx:371) bra.uni $Lt_7_8706;
GPGPU-Sim PTX:    immediate post dominator      @  PC=0x6b8 (_1.ptx:385) mov.f32 %f28, %f20;
GPGPU-Sim PTX:  4 (potential) branch divergence @  PC=0x6c0 (_1.ptx:386) bra.uni $Lt_7_8194;
GPGPU-Sim PTX:    immediate post dominator      @  PC=0x828 (_1.ptx:441) mov.f32 %f58, 0f00000000;    // 0
GPGPU-Sim PTX:  5 (potential) branch divergence @  PC=0x7b0 (_1.ptx:418) @%p5 bra $Lt_7_9474;
GPGPU-Sim PTX:    immediate post dominator      @  PC=0x820 (_1.ptx:438) mov.f32 %f28, %f51;
GPGPU-Sim PTX:  6 (potential) branch divergence @  PC=0x7c0 (_1.ptx:420) bra.uni $Lt_7_9730;
GPGPU-Sim PTX:    immediate post dominator      @  PC=0x820 (_1.ptx:438) mov.f32 %f28, %f51;
GPGPU-Sim PTX:  7 (potential) branch divergence @  PC=0x7e0 (_1.ptx:425) @!%p6 bra $Lt_7_9986;
GPGPU-Sim PTX:    immediate post dominator      @  PC=0x820 (_1.ptx:438) mov.f32 %f28, %f51;
GPGPU-Sim PTX:  8 (potential) branch divergence @  PC=0x7f0 (_1.ptx:427) bra.uni $Lt_7_9730;
GPGPU-Sim PTX:    immediate post dominator      @  PC=0x820 (_1.ptx:438) mov.f32 %f28, %f51;
GPGPU-Sim PTX:  9 (potential) branch divergence @  PC=0x838 (_1.ptx:443) @!%p7 bra $Lt_7_10242;
GPGPU-Sim PTX:    immediate post dominator      @  PC=0x8e8 (_1.ptx:468) add.s32 %r1, %r1, 1;
GPGPU-Sim PTX: 10 (potential) branch divergence @  PC=0x8d8 (_1.ptx:463) @!%p8 bra $Lt_7_10242;
GPGPU-Sim PTX:    immediate post dominator      @  PC=0x8e8 (_1.ptx:468) add.s32 %r1, %r1, 1;
GPGPU-Sim PTX: 11 (potential) branch divergence @  PC=0x908 (_1.ptx:472) @%p9 bra $Lt_7_10754;
GPGPU-Sim PTX:    immediate post dominator      @  PC=0x960 (_1.ptx:486) selp.s32 %r10, 1, 0, %p11;
GPGPU-Sim PTX: 12 (potential) branch divergence @  PC=0x930 (_1.ptx:477) @%p10 bra $L_7_7170;
GPGPU-Sim PTX:    immediate post dominator      @  PC=0x960 (_1.ptx:486) selp.s32 %r10, 1, 0, %p11;
GPGPU-Sim PTX: 13 (potential) branch divergence @  PC=0x938 (_1.ptx:478) bra.uni $L_7_7938;
GPGPU-Sim PTX:    immediate post dominator      @  PC=0x960 (_1.ptx:486) selp.s32 %r10, 1, 0, %p11;
GPGPU-Sim PTX: ... end of reconvergence points for _Z12notShadowRayP4Node6float3S1_f
GPGPU-Sim PTX: ... done pre-decoding instructions for '_Z12notShadowRayP4Node6float3S1_f'.
GPGPU-Sim PTX: instruction assembly for function '_Z15float2int_pow20f'...   done.
GPGPU-Sim PTX: finding reconvergence points for '_Z15float2int_pow20f'...
GPGPU-Sim PTX: Finding dominators for '_Z15float2int_pow20f'...
GPGPU-Sim PTX: Finding immediate dominators for '_Z15float2int_pow20f'...
GPGPU-Sim PTX: Finding postdominators for '_Z15float2int_pow20f'...
GPGPU-Sim PTX: Finding immediate postdominators for '_Z15float2int_pow20f'...
GPGPU-Sim PTX: pre-decoding instructions for '_Z15float2int_pow20f'...
GPGPU-Sim PTX: reconvergence points for _Z15float2int_pow20f...
GPGPU-Sim PTX: ... end of reconvergence points for _Z15float2int_pow20f
GPGPU-Sim PTX: ... done pre-decoding instructions for '_Z15float2int_pow20f'.
GPGPU-Sim PTX: instruction assembly for function '_Z15float2int_pow50f'...   done.
GPGPU-Sim PTX: finding reconvergence points for '_Z15float2int_pow50f'...
GPGPU-Sim PTX: Finding dominators for '_Z15float2int_pow50f'...
GPGPU-Sim PTX: Finding immediate dominators for '_Z15float2int_pow50f'...
GPGPU-Sim PTX: Finding postdominators for '_Z15float2int_pow50f'...
GPGPU-Sim PTX: Finding immediate postdominators for '_Z15float2int_pow50f'...
GPGPU-Sim PTX: pre-decoding instructions for '_Z15float2int_pow50f'...
GPGPU-Sim PTX: reconvergence points for _Z15float2int_pow50f...
GPGPU-Sim PTX: ... end of reconvergence points for _Z15float2int_pow50f
GPGPU-Sim PTX: ... done pre-decoding instructions for '_Z15float2int_pow50f'.
GPGPU-Sim PTX: allocating constant region for "MView" from 0x200 to 0x230 (global memory space) 1
GPGPU-Sim PTX: allocating stack frame region for .local "__cuda___cuda_local_var_36873_9_non_const_pile_32240" from 0x0 to 0x50
GPGPU-Sim PTX: instruction assembly for function '_Z6renderPjP4Nodejjff'...   done.
GPGPU-Sim PTX: finding reconvergence points for '_Z6renderPjP4Nodejjff'...
GPGPU-Sim PTX: Finding dominators for '_Z6renderPjP4Nodejjff'...
GPGPU-Sim PTX: Finding immediate dominators for '_Z6renderPjP4Nodejjff'...
GPGPU-Sim PTX: Finding postdominators for '_Z6renderPjP4Nodejjff'...
GPGPU-Sim PTX: Finding immediate postdominators for '_Z6renderPjP4Nodejjff'...
GPGPU-Sim PTX: pre-decoding instructions for '_Z6renderPjP4Nodejjff'...
GPGPU-Sim PTX: reconvergence points for _Z6renderPjP4Nodejjff...
GPGPU-Sim PTX:  1 (potential) branch divergence @  PC=0xdb0 (_1.ptx:663) @%p1 bra $Lt_10_44034;
GPGPU-Sim PTX:    immediate post dominator      @  PC=0x2370 (_1.ptx:1495) exit;
GPGPU-Sim PTX:  2 (potential) branch divergence @  PC=0x1028 (_1.ptx:751) @%p2 bra $Lt_10_45570;
GPGPU-Sim PTX:    immediate post dominator      @  PC=0x11b8 (_1.ptx:815) mov.f32 %f108, 0f00000000;   // 0
GPGPU-Sim PTX:  3 (potential) branch divergence @  PC=0x1048 (_1.ptx:756) @!%p3 bra $Lt_10_46082;
GPGPU-Sim PTX:    immediate post dominator      @  PC=0x1090 (_1.ptx:769) mov.f32 %f87, %f82;
GPGPU-Sim PTX:  4 (potential) branch divergence @  PC=0x1058 (_1.ptx:758) bra.uni $Lt_10_45826;
GPGPU-Sim PTX:    immediate post dominator      @  PC=0x1090 (_1.ptx:769) mov.f32 %f87, %f82;
GPGPU-Sim PTX:  5 (potential) branch divergence @  PC=0x1098 (_1.ptx:770) bra.uni $Lt_10_45314;
GPGPU-Sim PTX:    immediate post dominator      @  PC=0x11b8 (_1.ptx:815) mov.f32 %f108, 0f00000000;   // 0
GPGPU-Sim PTX:  6 (potential) branch divergence @  PC=0x1140 (_1.ptx:793) @%p6 bra $Lt_10_46594;
GPGPU-Sim PTX:    immediate post dominator      @  PC=0x11b0 (_1.ptx:813) mov.f32 %f87, %f101;
GPGPU-Sim PTX:  7 (potential) branch divergence @  PC=0x1150 (_1.ptx:795) bra.uni $Lt_10_46850;
GPGPU-Sim PTX:    immediate post dominator      @  PC=0x11b0 (_1.ptx:813) mov.f32 %f87, %f101;
GPGPU-Sim PTX:  8 (potential) branch divergence @  PC=0x1170 (_1.ptx:800) @!%p7 bra $Lt_10_47106;
GPGPU-Sim PTX:    immediate post dominator      @  PC=0x11b0 (_1.ptx:813) mov.f32 %f87, %f101;
GPGPU-Sim PTX:  9 (potential) branch divergence @  PC=0x1180 (_1.ptx:802) bra.uni $Lt_10_46850;
GPGPU-Sim PTX:    immediate post dominator      @  PC=0x11b0 (_1.ptx:813) mov.f32 %f87, %f101;
GPGPU-Sim PTX: 10 (potential) branch divergence @  PC=0x11f8 (_1.ptx:823) @%p8 bra $Lt_10_47362;
GPGPU-Sim PTX:    immediate post dominator      @  PC=0x1210 (_1.ptx:829) add.s32 %r25, %r25, 1;
GPGPU-Sim PTX: 11 (potential) branch divergence @  PC=0x1230 (_1.ptx:833) @%p9 bra $Lt_10_45058;
GPGPU-Sim PTX:    immediate post dominator      @  PC=0x1238 (_1.ptx:834) mov.f32 %f109, 0f00000000;   // 0
GPGPU-Sim PTX: 12 (potential) branch divergence @  PC=0x1280 (_1.ptx:843) @%p10 bra $Lt_10_48130;
GPGPU-Sim PTX:    immediate post dominator      @  PC=0x2140 (_1.ptx:1416) add.s32 %r23, %r23, 1;
GPGPU-Sim PTX: 13 (potential) branch divergence @  PC=0x1330 (_1.ptx:868) @%p11 bra $Lt_10_48898;
GPGPU-Sim PTX:    immediate post dominator      @  PC=0x13b8 (_1.ptx:888) sub.f32 %f136, %f21, %f119;
GPGPU-Sim PTX: 14 (potential) branch divergence @  PC=0x1350 (_1.ptx:873) bra.uni $Lt_10_48642;
GPGPU-Sim PTX:    immediate post dominator      @  PC=0x13b8 (_1.ptx:888) sub.f32 %f136, %f21, %f119;
GPGPU-Sim PTX: 15 (potential) branch divergence @  PC=0x1430 (_1.ptx:903) @!%p12 bra $Lt_10_49410;
GPGPU-Sim PTX:    immediate post dominator      @  PC=0x1470 (_1.ptx:915) mov.f32 %f153, 0f3d4ccccd;   // 0.05
GPGPU-Sim PTX: 16 (potential) branch divergence @  PC=0x1450 (_1.ptx:908) bra.uni $Lt_10_49154;
GPGPU-Sim PTX:    immediate post dominator      @  PC=0x1470 (_1.ptx:915) mov.f32 %f153, 0f3d4ccccd;   // 0.05
GPGPU-Sim PTX: 17 (potential) branch divergence @  PC=0x1578 (_1.ptx:949) @!%p13 bra $Lt_10_58114;
GPGPU-Sim PTX:    immediate post dominator      @  PC=0x2080 (_1.ptx:1388) add.f32 %f399, %f126, %f126;
GPGPU-Sim PTX: 18 (potential) branch divergence @  PC=0x15c0 (_1.ptx:961) @%p14 bra $Lt_10_49922;
GPGPU-Sim PTX:    immediate post dominator      @  PC=0x17b0 (_1.ptx:1039) mov.f32 %f221, 0f00000000;   // 0
GPGPU-Sim PTX: 19 (potential) branch divergence @  PC=0x15e0 (_1.ptx:966) @!%p15 bra $Lt_10_50434;
GPGPU-Sim PTX:    immediate post dominator      @  PC=0x1638 (_1.ptx:982) mov.f32 %f190, %f183;
GPGPU-Sim PTX: 20 (potential) branch divergence @  PC=0x15f0 (_1.ptx:968) bra.uni $Lt_10_50178;
GPGPU-Sim PTX:    immediate post dominator      @  PC=0x1638 (_1.ptx:982) mov.f32 %f190, %f183;
GPGPU-Sim PTX: 21 (potential) branch divergence @  PC=0x1640 (_1.ptx:983) bra.uni $Lt_10_49666;
GPGPU-Sim PTX:    immediate post dominator      @  PC=0x17b0 (_1.ptx:1039) mov.f32 %f221, 0f00000000;   // 0
GPGPU-Sim PTX: 22 (potential) branch divergence @  PC=0x1738 (_1.ptx:1016) @%p18 bra $Lt_10_50946;
GPGPU-Sim PTX:    immediate post dominator      @  PC=0x17a8 (_1.ptx:1036) mov.f32 %f190, %f214;
GPGPU-Sim PTX: 23 (potential) branch divergence @  PC=0x1748 (_1.ptx:1018) bra.uni $Lt_10_51202;
GPGPU-Sim PTX:    immediate post dominator      @  PC=0x17a8 (_1.ptx:1036) mov.f32 %f190, %f214;
GPGPU-Sim PTX: 24 (potential) branch divergence @  PC=0x1768 (_1.ptx:1023) @!%p19 bra $Lt_10_51458;
GPGPU-Sim PTX:    immediate post dominator      @  PC=0x17a8 (_1.ptx:1036) mov.f32 %f190, %f214;
GPGPU-Sim PTX: 25 (potential) branch divergence @  PC=0x1778 (_1.ptx:1025) bra.uni $Lt_10_51202;
GPGPU-Sim PTX:    immediate post dominator      @  PC=0x17a8 (_1.ptx:1036) mov.f32 %f190, %f214;
GPGPU-Sim PTX: 26 (potential) branch divergence @  PC=0x17c0 (_1.ptx:1041) @!%p20 bra $Lt_10_58370;
GPGPU-Sim PTX:    immediate post dominator      @  PC=0x1828 (_1.ptx:1057) add.s32 %r50, %r50, 1;
GPGPU-Sim PTX: 27 (potential) branch divergence @  PC=0x1818 (_1.ptx:1052) @!%p21 bra $Lt_10_58370;
GPGPU-Sim PTX:    immediate post dominator      @  PC=0x1828 (_1.ptx:1057) add.s32 %r50, %r50, 1;
GPGPU-Sim PTX: 28 (potential) branch divergence @  PC=0x1848 (_1.ptx:1061) @%p22 bra $Lt_10_58882;
GPGPU-Sim PTX:    immediate post dominator      @  PC=0x1880 (_1.ptx:1071) @!%p23 bra $Lt_10_58114;
GPGPU-Sim PTX: 29 (potential) branch divergence @  PC=0x1860 (_1.ptx:1064) @%p23 bra $L_10_42498;
GPGPU-Sim PTX:    immediate post dominator      @  PC=0x1880 (_1.ptx:1071) @!%p23 bra $Lt_10_58114;
GPGPU-Sim PTX: 30 (potential) branch divergence @  PC=0x1868 (_1.ptx:1065) bra.uni $L_10_43266;
GPGPU-Sim PTX:    immediate post dominator      @  PC=0x1880 (_1.ptx:1071) @!%p23 bra $Lt_10_58114;
GPGPU-Sim PTX: 31 (potential) branch divergence @  PC=0x1880 (_1.ptx:1071) @!%p23 bra $Lt_10_58114;
GPGPU-Sim PTX:    immediate post dominator      @  PC=0x2080 (_1.ptx:1388) add.f32 %f399, %f126, %f126;
GPGPU-Sim PTX: 32 (potential) branch divergence @  PC=0x19c8 (_1.ptx:1115) @!%p24 bra $Lt_10_51714;
GPGPU-Sim PTX:    immediate post dominator      @  PC=0x2040 (_1.ptx:1375) mov.f32 %f394, 0f3f4ccccd;   // 0.8
GPGPU-Sim PTX: 33 (potential) branch divergence @  PC=0x19d8 (_1.ptx:1118) bra.uni $LDWendi___isnanf_192_1;
GPGPU-Sim PTX:    immediate post dominator      @  PC=0x2040 (_1.ptx:1375) mov.f32 %f394, 0f3f4ccccd;   // 0.8
GPGPU-Sim PTX: 34 (potential) branch divergence @  PC=0x19f8 (_1.ptx:1124) @!%p25 bra $Lt_10_7682;
GPGPU-Sim PTX:    immediate post dominator      @  PC=0x2040 (_1.ptx:1375) mov.f32 %f394, 0f3f4ccccd;   // 0.8
GPGPU-Sim PTX: 35 (potential) branch divergence @  PC=0x1a00 (_1.ptx:1125) bra.uni $Lt_10_7938;
GPGPU-Sim PTX:    immediate post dominator      @  PC=0x1a20 (_1.ptx:1133) mov.f32 %f272, 0f7f800000;   // ((1.0F)/(0.0F))
GPGPU-Sim PTX: 36 (potential) branch divergence @  PC=0x1a18 (_1.ptx:1130) bra.uni $LDWendi___isnanf_192_1;
GPGPU-Sim PTX:    immediate post dominator      @  PC=0x2040 (_1.ptx:1375) mov.f32 %f394, 0f3f4ccccd;   // 0.8
GPGPU-Sim PTX: 37 (potential) branch divergence @  PC=0x1a30 (_1.ptx:1135) @!%p26 bra $Lt_10_52226;
GPGPU-Sim PTX:    immediate post dominator      @  PC=0x2040 (_1.ptx:1375) mov.f32 %f394, 0f3f4ccccd;   // 0.8
GPGPU-Sim PTX: 38 (potential) branch divergence @  PC=0x1a40 (_1.ptx:1138) bra.uni $LDWendi___isnanf_192_1;
GPGPU-Sim PTX:    immediate post dominator      @  PC=0x2040 (_1.ptx:1375) mov.f32 %f394, 0f3f4ccccd;   // 0.8
GPGPU-Sim PTX: 39 (potential) branch divergence @  PC=0x1a58 (_1.ptx:1142) @!%p27 bra $Lt_10_52738;
GPGPU-Sim PTX:    immediate post dominator      @  PC=0x2040 (_1.ptx:1375) mov.f32 %f394, 0f3f4ccccd;   // 0.8
GPGPU-Sim PTX: 40 (potential) branch divergence @  PC=0x1ab8 (_1.ptx:1155) bra.uni $LDWendi___isnanf_192_1;
GPGPU-Sim PTX:    immediate post dominator      @  PC=0x2040 (_1.ptx:1375) mov.f32 %f394, 0f3f4ccccd;   // 0.8
GPGPU-Sim PTX: 41 (potential) branch divergence @  PC=0x1ad0 (_1.ptx:1159) @!%p29 bra $Lt_10_53250;
GPGPU-Sim PTX:    immediate post dominator      @  PC=0x2040 (_1.ptx:1375) mov.f32 %f394, 0f3f4ccccd;   // 0.8
GPGPU-Sim PTX: 42 (potential) branch divergence @  PC=0x1b20 (_1.ptx:1170) @!%p30 bra $Lt_10_53762;
GPGPU-Sim PTX:    immediate post dominator      @  PC=0x1b40 (_1.ptx:1177) mov.f32 %f268, %f284;
GPGPU-Sim PTX: 43 (potential) branch divergence @  PC=0x1b48 (_1.ptx:1178) bra.uni $LDWendi___isnanf_192_1;
GPGPU-Sim PTX:    immediate post dominator      @  PC=0x2040 (_1.ptx:1375) mov.f32 %f394, 0f3f4ccccd;   // 0.8
GPGPU-Sim PTX: 44 (potential) branch divergence @  PC=0x1b60 (_1.ptx:1183) @!%p31 bra $Lt_10_59394;
GPGPU-Sim PTX:    immediate post dominator      @  PC=0x2040 (_1.ptx:1375) mov.f32 %f394, 0f3f4ccccd;   // 0.8
GPGPU-Sim PTX: 45 (potential) branch divergence @  PC=0x1b88 (_1.ptx:1188) @!%p32 bra $Lt_10_59394;
GPGPU-Sim PTX:    immediate post dominator      @  PC=0x2040 (_1.ptx:1375) mov.f32 %f394, 0f3f4ccccd;   // 0.8
GPGPU-Sim PTX: 46 (potential) branch divergence @  PC=0x1ba0 (_1.ptx:1192) bra.uni $LDWendi___isnanf_192_1;
GPGPU-Sim PTX:    immediate post dominator      @  PC=0x2040 (_1.ptx:1375) mov.f32 %f394, 0f3f4ccccd;   // 0.8
GPGPU-Sim PTX: 47 (potential) branch divergence @  PC=0x1bd8 (_1.ptx:1202) @%p33 bra $Lt_10_54530;
GPGPU-Sim PTX:    immediate post dominator      @  PC=0x1c20 (_1.ptx:1216) sub.s32 %r64, %r64, 127;
GPGPU-Sim PTX: 48 (potential) branch divergence @  PC=0x1c10 (_1.ptx:1211) bra.uni $Lt_10_54274;
GPGPU-Sim PTX:    immediate post dominator      @  PC=0x1c20 (_1.ptx:1216) sub.s32 %r64, %r64, 127;
GPGPU-Sim PTX: 49 (potential) branch divergence @  PC=0x1c58 (_1.ptx:1224) @!%p34 bra $Lt_10_54786;
GPGPU-Sim PTX:    immediate post dominator      @  PC=0x1c78 (_1.ptx:1232) mov.f32 %f302, 0fbf800000;   // -1
GPGPU-Sim PTX: 50 (potential) branch divergence @  PC=0x1eb0 (_1.ptx:1312) @%p35 bra $Lt_10_55298;
GPGPU-Sim PTX:    immediate post dominator      @  PC=0x1ed8 (_1.ptx:1321) mov.f32 %f367, %f365;
GPGPU-Sim PTX: 51 (potential) branch divergence @  PC=0x1f98 (_1.ptx:1346) @!%p38 bra $Lt_10_55810;
GPGPU-Sim PTX:    immediate post dominator      @  PC=0x1fa8 (_1.ptx:1351) mov.f32 %f284, %f386;
GPGPU-Sim PTX: 52 (potential) branch divergence @  PC=0x2018 (_1.ptx:1365) @%p39 bra $Lt_10_56322;
GPGPU-Sim PTX:    immediate post dominator      @  PC=0x2038 (_1.ptx:1372) mov.f32 %f268, %f284;
GPGPU-Sim PTX: 53 (potential) branch divergence @  PC=0x2158 (_1.ptx:1419) @%p40 bra $L_10_42242;
GPGPU-Sim PTX:    immediate post dominator      @  PC=0x2170 (_1.ptx:1424) sub.s32 %r86, %r24, 1;
GPGPU-Sim PTX: 54 (potential) branch divergence @  PC=0x2168 (_1.ptx:1421) @%p41 bra $L_10_41474;
GPGPU-Sim PTX:    immediate post dominator      @  PC=0x2170 (_1.ptx:1424) sub.s32 %r86, %r24, 1;
GPGPU-Sim PTX: 55 (potential) branch divergence @  PC=0x2190 (_1.ptx:1428) @%p42 bra $Lt_10_56834;
GPGPU-Sim PTX:    immediate post dominator      @  PC=0x2288 (_1.ptx:1464) ld.global.u32 %r92, [%rd4+0];
GPGPU-Sim PTX: 56 (potential) branch divergence @  PC=0x2280 (_1.ptx:1461) @%p43 bra $Lt_10_57346;
GPGPU-Sim PTX:    immediate post dominator      @  PC=0x2288 (_1.ptx:1464) ld.global.u32 %r92, [%rd4+0];
GPGPU-Sim PTX: ... end of reconvergence points for _Z6renderPjP4Nodejjff
GPGPU-Sim PTX: ... done pre-decoding instructions for '_Z6renderPjP4Nodejjff'.
GPGPU-Sim PTX: instruction assembly for function '_ZN4dim3C1Ejjj'...   done.
GPGPU-Sim PTX: finding reconvergence points for '_ZN4dim3C1Ejjj'...
GPGPU-Sim PTX: Finding dominators for '_ZN4dim3C1Ejjj'...
GPGPU-Sim PTX: Finding immediate dominators for '_ZN4dim3C1Ejjj'...
GPGPU-Sim PTX: Finding postdominators for '_ZN4dim3C1Ejjj'...
GPGPU-Sim PTX: Finding immediate postdominators for '_ZN4dim3C1Ejjj'...
GPGPU-Sim PTX: pre-decoding instructions for '_ZN4dim3C1Ejjj'...
GPGPU-Sim PTX: reconvergence points for _ZN4dim3C1Ejjj...
GPGPU-Sim PTX: ... end of reconvergence points for _ZN4dim3C1Ejjj
GPGPU-Sim PTX: ... done pre-decoding instructions for '_ZN4dim3C1Ejjj'.
GPGPU-Sim PTX: finished parsing EMBEDDED .ptx file _1.ptx
Adding _cuobjdump_2.ptx with cubin handle 1
GPGPU-Sim PTX: extracting embedded .ptx to temporary file "_ptx_lx8763"
Running: cat _ptx_lx8763 | sed 's/.version 1.5/.version 1.4/' | sed 's/, texmode_independent//' | sed 's/\(\.extern \.const\[1\] .b8 \w\+\)\[\]/\1\[1\]/' | sed 's/const\[.\]/const\[0\]/g' > _ptx2_BDxMOJ
GPGPU-Sim PTX: generating ptxinfo using "$CUDA_INSTALL_PATH/bin/ptxas --gpu-name=sm_20 -v _ptx2_BDxMOJ --output-file  /dev/null 2> _ptx_lx8763info"
GPGPU-Sim PTX: Kernel '_Z6renderPjP4Nodejjff' : regs=45, lmem=4, smem=0, cmem=180
GPGPU-Sim PTX: removing ptxinfo using "rm -f _ptx_lx8763 _ptx2_BDxMOJ _ptx_lx8763info"
GPGPU-Sim PTX: loading globals with explicit initializers... 
GPGPU-Sim PTX: finished loading globals (0 bytes total).
GPGPU-Sim PTX: loading constants with explicit initializers...  done.
GPGPU-Sim PTX: __cudaRegisterVar: hostVar = 0x636760; deviceAddress = MView; deviceName = MView
GPGPU-Sim PTX: __cudaRegisterVar: Registering const memory space of 48 bytes
GPGPU-Sim PTX registering constant MView (48 bytes) to name mapping
GPGPU-Sim PTX: __cudaRegisterVar: hostVar = 0x6367a0; deviceAddress = cnode; deviceName = cnode
GPGPU-Sim PTX: __cudaRegisterVar: Registering const memory space of 160 bytes
GPGPU-Sim PTX registering constant cnode (160 bytes) to name mapping
GPGPU-Sim PTX: cudaMemcpyToSymbol: symbol = 0x6367a0
GPGPU-Sim PTX: starting gpgpu_ptx_sim_memcpy_symbol with hostVar 0x0x6367a0
GPGPU-Sim PTX: gpgpu_ptx_sim_memcpy_symbol: Found PTX symbol w/ hostVar=0x6367a0
GPGPU-Sim PTX: gpgpu_ptx_sim_memcpy_symbol: copying const memory 160 bytes  to  symbol cnode+0 @0x100 ...
GPGPU-Sim PTX: cudaMemcpyToSymbol: symbol = 0x636760
GPGPU-Sim PTX: starting gpgpu_ptx_sim_memcpy_symbol with hostVar 0x0x636760
GPGPU-Sim PTX: gpgpu_ptx_sim_memcpy_symbol: Found PTX symbol w/ hostVar=0x636760
GPGPU-Sim PTX: gpgpu_ptx_sim_memcpy_symbol: copying const memory 48 bytes  to  symbol MView+0 @0x200 ...

GPGPU-Sim PTX: cudaLaunch for 0x0x40a280 (mode=performance simulation) on stream 0
GPGPU-Sim PTX: pushing kernel '_Z6renderPjP4Nodejjff' to stream 0, gridDim= (16,32,1) blockDim = (16,8,1) 
kernel '_Z6renderPjP4Nodejjff' transfer to GPU hardware scheduler
GPGPU-Sim uArch: Shader 1 bind to kernel 1 '_Z6renderPjP4Nodejjff'
GPGPU-Sim uArch: CTA/core = 5, limited by: regs
GPGPU-Sim uArch: core:  1, cta: 0 initialized @(1,0)
GPGPU-Sim uArch: Shader 2 bind to kernel 1 '_Z6renderPjP4Nodejjff'
GPGPU-Sim uArch: core:  2, cta: 0 initialized @(1,0)
GPGPU-Sim uArch: Shader 3 bind to kernel 1 '_Z6renderPjP4Nodejjff'
GPGPU-Sim uArch: core:  3, cta: 0 initialized @(1,0)
GPGPU-Sim uArch: Shader 4 bind to kernel 1 '_Z6renderPjP4Nodejjff'
GPGPU-Sim uArch: core:  4, cta: 0 initialized @(1,0)
GPGPU-Sim uArch: Shader 5 bind to kernel 1 '_Z6renderPjP4Nodejjff'
GPGPU-Sim uArch: core:  5, cta: 0 initialized @(1,0)
GPGPU-Sim uArch: Shader 6 bind to kernel 1 '_Z6renderPjP4Nodejjff'
GPGPU-Sim uArch: core:  6, cta: 0 initialized @(1,0)
GPGPU-Sim uArch: Shader 7 bind to kernel 1 '_Z6renderPjP4Nodejjff'
GPGPU-Sim uArch: core:  7, cta: 0 initialized @(1,0)
GPGPU-Sim uArch: Shader 8 bind to kernel 1 '_Z6renderPjP4Nodejjff'
GPGPU-Sim uArch: core:  8, cta: 0 initialized @(1,0)
GPGPU-Sim uArch: Shader 9 bind to kernel 1 '_Z6renderPjP4Nodejjff'
GPGPU-Sim uArch: core:  9, cta: 0 initialized @(1,0)
GPGPU-Sim uArch: Shader 10 bind to kernel 1 '_Z6renderPjP4Nodejjff'
GPGPU-Sim uArch: core: 10, cta: 0 initialized @(1,0)
GPGPU-Sim uArch: Shader 11 bind to kernel 1 '_Z6renderPjP4Nodejjff'
GPGPU-Sim uArch: core: 11, cta: 0 initialized @(1,0)
GPGPU-Sim uArch: Shader 12 bind to kernel 1 '_Z6renderPjP4Nodejjff'
GPGPU-Sim uArch: core: 12, cta: 0 initialized @(1,0)
GPGPU-Sim uArch: Shader 13 bind to kernel 1 '_Z6renderPjP4Nodejjff'
GPGPU-Sim uArch: core: 13, cta: 0 initialized @(1,0)
GPGPU-Sim uArch: Shader 14 bind to kernel 1 '_Z6renderPjP4Nodejjff'
GPGPU-Sim uArch: core: 14, cta: 0 initialized @(1,0)
GPGPU-Sim uArch: Shader 0 bind to kernel 1 '_Z6renderPjP4Nodejjff'
GPGPU-Sim uArch: core:  0, cta: 0 initialized @(1,0)
GPGPU-Sim uArch: core:  1, cta: 1 initialized @(2,0)
GPGPU-Sim uArch: core:  2, cta: 1 initialized @(2,0)
GPGPU-Sim uArch: core:  3, cta: 1 initialized @(2,0)
GPGPU-Sim uArch: core:  4, cta: 1 initialized @(2,0)
GPGPU-Sim uArch: core:  5, cta: 1 initialized @(2,0)
GPGPU-Sim uArch: core:  6, cta: 1 initialized @(2,0)
GPGPU-Sim uArch: core:  7, cta: 1 initialized @(2,0)
GPGPU-Sim uArch: core:  8, cta: 1 initialized @(2,0)
GPGPU-Sim uArch: core:  9, cta: 1 initialized @(2,0)
GPGPU-Sim uArch: core: 10, cta: 1 initialized @(2,0)
GPGPU-Sim uArch: core: 11, cta: 1 initialized @(2,0)
GPGPU-Sim uArch: core: 12, cta: 1 initialized @(2,0)
GPGPU-Sim uArch: core: 13, cta: 1 initialized @(2,0)
GPGPU-Sim uArch: core: 14, cta: 1 initialized @(2,0)
GPGPU-Sim uArch: core:  0, cta: 1 initialized @(2,0)
GPGPU-Sim uArch: core:  1, cta: 2 initialized @(3,0)
GPGPU-Sim uArch: core:  2, cta: 2 initialized @(3,0)
GPGPU-Sim uArch: core:  3, cta: 2 initialized @(3,0)
GPGPU-Sim uArch: core:  4, cta: 2 initialized @(3,0)
GPGPU-Sim uArch: core:  5, cta: 2 initialized @(3,0)
GPGPU-Sim uArch: core:  6, cta: 2 initialized @(3,0)
GPGPU-Sim uArch: core:  7, cta: 2 initialized @(3,0)
GPGPU-Sim uArch: core:  8, cta: 2 initialized @(3,0)
GPGPU-Sim uArch: core:  9, cta: 2 initialized @(3,0)
GPGPU-Sim uArch: core: 10, cta: 2 initialized @(3,0)
GPGPU-Sim uArch: core: 11, cta: 2 initialized @(3,0)
GPGPU-Sim uArch: core: 12, cta: 2 initialized @(3,0)
GPGPU-Sim uArch: core: 13, cta: 2 initialized @(3,0)
GPGPU-Sim uArch: core: 14, cta: 2 initialized @(3,0)
GPGPU-Sim uArch: core:  0, cta: 2 initialized @(3,0)
GPGPU-Sim uArch: core:  1, cta: 3 initialized @(4,0)
GPGPU-Sim uArch: core:  2, cta: 3 initialized @(4,0)
GPGPU-Sim uArch: core:  3, cta: 3 initialized @(4,0)
GPGPU-Sim uArch: core:  4, cta: 3 initialized @(4,0)
GPGPU-Sim uArch: core:  5, cta: 3 initialized @(4,0)
GPGPU-Sim uArch: core:  6, cta: 3 initialized @(4,0)
GPGPU-Sim uArch: core:  7, cta: 3 initialized @(4,0)
GPGPU-Sim uArch: core:  8, cta: 3 initialized @(4,0)
GPGPU-Sim uArch: core:  9, cta: 3 initialized @(4,0)
GPGPU-Sim uArch: core: 10, cta: 3 initialized @(4,0)
GPGPU-Sim uArch: core: 11, cta: 3 initialized @(4,0)
GPGPU-Sim uArch: core: 12, cta: 3 initialized @(4,0)
GPGPU-Sim uArch: core: 13, cta: 3 initialized @(4,0)
GPGPU-Sim uArch: core: 14, cta: 3 initialized @(4,0)
GPGPU-Sim uArch: core:  0, cta: 3 initialized @(4,0)
GPGPU-Sim uArch: core:  1, cta: 4 initialized @(5,0)
GPGPU-Sim uArch: core:  2, cta: 4 initialized @(5,0)
GPGPU-Sim uArch: core:  3, cta: 4 initialized @(5,0)
GPGPU-Sim uArch: core:  4, cta: 4 initialized @(5,0)
GPGPU-Sim uArch: core:  5, cta: 4 initialized @(5,0)
GPGPU-Sim uArch: core:  6, cta: 4 initialized @(5,0)
GPGPU-Sim uArch: core:  7, cta: 4 initialized @(5,0)
GPGPU-Sim uArch: core:  8, cta: 4 initialized @(5,0)
GPGPU-Sim uArch: core:  9, cta: 4 initialized @(5,0)
GPGPU-Sim uArch: core: 10, cta: 4 initialized @(5,0)
GPGPU-Sim uArch: core: 11, cta: 4 initialized @(5,0)
GPGPU-Sim uArch: core: 12, cta: 4 initialized @(5,0)
GPGPU-Sim uArch: core: 13, cta: 4 initialized @(5,0)
GPGPU-Sim uArch: core: 14, cta: 4 initialized @(5,0)
GPGPU-Sim uArch: core:  0, cta: 4 initialized @(5,0)
GPGPU-Sim uArch: cycles simulated: 500  inst.: 34176 (ipc=68.4) sim_rate=34176 (inst/sec) elapsed = 0:0:00:01 / Fri May 15 11:57:46 2015
GPGPU-Sim uArch: cycles simulated: 1000  inst.: 62720 (ipc=62.7) sim_rate=20906 (inst/sec) elapsed = 0:0:00:03 / Fri May 15 11:57:48 2015
GPGPU-Sim uArch: cycles simulated: 1500  inst.: 71168 (ipc=47.4) sim_rate=17792 (inst/sec) elapsed = 0:0:00:04 / Fri May 15 11:57:49 2015
GPGPU-Sim uArch: cycles simulated: 2000  inst.: 75872 (ipc=37.9) sim_rate=15174 (inst/sec) elapsed = 0:0:00:05 / Fri May 15 11:57:50 2015
GPGPU-Sim PTX: 100000 instructions simulated : ctaid=(0,0,0) tid=(15,5,0)
GPGPU-Sim uArch: cycles simulated: 2500  inst.: 102560 (ipc=41.0) sim_rate=17093 (inst/sec) elapsed = 0:0:00:06 / Fri May 15 11:57:51 2015
GPGPU-Sim uArch: cycles simulated: 3000  inst.: 129440 (ipc=43.1) sim_rate=18491 (inst/sec) elapsed = 0:0:00:07 / Fri May 15 11:57:52 2015
GPGPU-Sim uArch: cycles simulated: 3500  inst.: 153280 (ipc=43.8) sim_rate=19160 (inst/sec) elapsed = 0:0:00:08 / Fri May 15 11:57:53 2015
GPGPU-Sim PTX: 200000 instructions simulated : ctaid=(5,0,0) tid=(15,7,0)
GPGPU-Sim uArch: cycles simulated: 4000  inst.: 205920 (ipc=51.5) sim_rate=20592 (inst/sec) elapsed = 0:0:00:10 / Fri May 15 11:57:55 2015
GPGPU-Sim uArch: cycles simulated: 4500  inst.: 234944 (ipc=52.2) sim_rate=21358 (inst/sec) elapsed = 0:0:00:11 / Fri May 15 11:57:56 2015
GPGPU-Sim uArch: cycles simulated: 5000  inst.: 280288 (ipc=56.1) sim_rate=23357 (inst/sec) elapsed = 0:0:00:12 / Fri May 15 11:57:57 2015
GPGPU-Sim PTX: 300000 instructions simulated : ctaid=(11,0,0) tid=(15,7,0)
GPGPU-Sim uArch: cycles simulated: 5500  inst.: 369696 (ipc=67.2) sim_rate=26406 (inst/sec) elapsed = 0:0:00:14 / Fri May 15 11:57:59 2015
GPGPU-Sim PTX: 400000 instructions simulated : ctaid=(6,1,0) tid=(15,3,0)
GPGPU-Sim PTX: 500000 instructions simulated : ctaid=(7,1,0) tid=(15,5,0)
GPGPU-Sim uArch: cycles simulated: 6000  inst.: 503328 (ipc=83.9) sim_rate=31458 (inst/sec) elapsed = 0:0:00:16 / Fri May 15 11:58:01 2015
GPGPU-Sim PTX: 600000 instructions simulated : ctaid=(2,2,0) tid=(15,5,0)
GPGPU-Sim uArch: cycles simulated: 6500  inst.: 600416 (ipc=92.4) sim_rate=35318 (inst/sec) elapsed = 0:0:00:17 / Fri May 15 11:58:02 2015
GPGPU-Sim PTX: 700000 instructions simulated : ctaid=(3,0,0) tid=(15,5,0)
GPGPU-Sim uArch: cycles simulated: 7000  inst.: 691200 (ipc=98.7) sim_rate=36378 (inst/sec) elapsed = 0:0:00:19 / Fri May 15 11:58:04 2015
GPGPU-Sim uArch: cycles simulated: 7500  inst.: 764224 (ipc=101.9) sim_rate=38211 (inst/sec) elapsed = 0:0:00:20 / Fri May 15 11:58:05 2015
GPGPU-Sim PTX: 800000 instructions simulated : ctaid=(0,1,0) tid=(15,3,0)
GPGPU-Sim PTX: 900000 instructions simulated : ctaid=(0,2,0) tid=(15,1,0)
GPGPU-Sim uArch: cycles simulated: 8000  inst.: 960928 (ipc=120.1) sim_rate=43678 (inst/sec) elapsed = 0:0:00:22 / Fri May 15 11:58:07 2015
GPGPU-Sim PTX: 1000000 instructions simulated : ctaid=(10,2,0) tid=(15,7,0)
GPGPU-Sim PTX: 1100000 instructions simulated : ctaid=(5,2,0) tid=(15,1,0)
GPGPU-Sim uArch: cycles simulated: 8500  inst.: 1091072 (ipc=128.4) sim_rate=45461 (inst/sec) elapsed = 0:0:00:24 / Fri May 15 11:58:09 2015
GPGPU-Sim PTX: 1200000 instructions simulated : ctaid=(4,0,0) tid=(15,3,0)
GPGPU-Sim uArch: cycles simulated: 9000  inst.: 1216480 (ipc=135.2) sim_rate=46787 (inst/sec) elapsed = 0:0:00:26 / Fri May 15 11:58:11 2015
GPGPU-Sim PTX: 1300000 instructions simulated : ctaid=(9,1,0) tid=(15,7,0)
GPGPU-Sim PTX: 1400000 instructions simulated : ctaid=(7,3,0) tid=(15,5,0)
GPGPU-Sim uArch: cycles simulated: 9500  inst.: 1424800 (ipc=150.0) sim_rate=50885 (inst/sec) elapsed = 0:0:00:28 / Fri May 15 11:58:13 2015
GPGPU-Sim PTX: 1500000 instructions simulated : ctaid=(9,2,0) tid=(15,3,0)
GPGPU-Sim PTX: 1600000 instructions simulated : ctaid=(4,3,0) tid=(15,1,0)
GPGPU-Sim uArch: cycles simulated: 10000  inst.: 1618816 (ipc=161.9) sim_rate=53960 (inst/sec) elapsed = 0:0:00:30 / Fri May 15 11:58:15 2015
GPGPU-Sim PTX: 1700000 instructions simulated : ctaid=(11,1,0) tid=(15,7,0)
GPGPU-Sim PTX: 1800000 instructions simulated : ctaid=(15,2,0) tid=(15,1,0)
GPGPU-Sim uArch: cycles simulated: 10500  inst.: 1846688 (ipc=175.9) sim_rate=57709 (inst/sec) elapsed = 0:0:00:32 / Fri May 15 11:58:17 2015
GPGPU-Sim PTX: 1900000 instructions simulated : ctaid=(12,0,0) tid=(15,7,0)
GPGPU-Sim PTX: 2000000 instructions simulated : ctaid=(6,3,0) tid=(15,3,0)
GPGPU-Sim PTX: 2100000 instructions simulated : ctaid=(11,3,0) tid=(15,7,0)
GPGPU-Sim uArch: cycles simulated: 11000  inst.: 2076192 (ipc=188.7) sim_rate=62914 (inst/sec) elapsed = 0:0:00:33 / Fri May 15 11:58:18 2015
GPGPU-Sim PTX: 2200000 instructions simulated : ctaid=(0,4,0) tid=(15,7,0)
GPGPU-Sim PTX: 2300000 instructions simulated : ctaid=(6,3,0) tid=(15,7,0)
GPGPU-Sim uArch: cycles simulated: 11500  inst.: 2306816 (ipc=200.6) sim_rate=65909 (inst/sec) elapsed = 0:0:00:35 / Fri May 15 11:58:20 2015
GPGPU-Sim PTX: 2400000 instructions simulated : ctaid=(13,1,0) tid=(15,3,0)
GPGPU-Sim PTX: 2500000 instructions simulated : ctaid=(2,2,0) tid=(15,3,0)
GPGPU-Sim uArch: cycles simulated: 12000  inst.: 2535168 (ipc=211.3) sim_rate=68518 (inst/sec) elapsed = 0:0:00:37 / Fri May 15 11:58:22 2015
GPGPU-Sim PTX: 2600000 instructions simulated : ctaid=(11,0,0) tid=(15,3,0)
GPGPU-Sim PTX: 2700000 instructions simulated : ctaid=(6,0,0) tid=(15,1,0)
GPGPU-Sim PTX: 2800000 instructions simulated : ctaid=(11,0,0) tid=(15,5,0)
GPGPU-Sim uArch: cycles simulated: 12500  inst.: 2770944 (ipc=221.7) sim_rate=71049 (inst/sec) elapsed = 0:0:00:39 / Fri May 15 11:58:24 2015
GPGPU-Sim PTX: 2900000 instructions simulated : ctaid=(2,2,0) tid=(15,1,0)
GPGPU-Sim PTX: 3000000 instructions simulated : ctaid=(6,1,0) tid=(15,5,0)
GPGPU-Sim uArch: cycles simulated: 13000  inst.: 2958048 (ipc=227.5) sim_rate=72147 (inst/sec) elapsed = 0:0:00:41 / Fri May 15 11:58:26 2015
GPGPU-Sim PTX: 3100000 instructions simulated : ctaid=(9,0,0) tid=(15,5,0)
GPGPU-Sim PTX: 3200000 instructions simulated : ctaid=(8,4,0) tid=(15,5,0)
GPGPU-Sim uArch: cycles simulated: 13500  inst.: 3156960 (ipc=233.8) sim_rate=71749 (inst/sec) elapsed = 0:0:00:44 / Fri May 15 11:58:29 2015
GPGPU-Sim PTX: 3300000 instructions simulated : ctaid=(5,4,0) tid=(15,5,0)
GPGPU-Sim PTX: 3400000 instructions simulated : ctaid=(1,1,0) tid=(15,1,0)
GPGPU-Sim uArch: cycles simulated: 14000  inst.: 3369920 (ipc=240.7) sim_rate=73259 (inst/sec) elapsed = 0:0:00:46 / Fri May 15 11:58:31 2015
GPGPU-Sim PTX: 3500000 instructions simulated : ctaid=(0,3,0) tid=(15,1,0)
GPGPU-Sim PTX: 3600000 instructions simulated : ctaid=(4,0,0) tid=(15,7,0)
GPGPU-Sim uArch: cycles simulated: 14500  inst.: 3522784 (ipc=243.0) sim_rate=74952 (inst/sec) elapsed = 0:0:00:47 / Fri May 15 11:58:32 2015
GPGPU-Sim PTX: 3700000 instructions simulated : ctaid=(7,3,0) tid=(15,5,0)
GPGPU-Sim PTX: 3800000 instructions simulated : ctaid=(11,3,0) tid=(15,7,0)
GPGPU-Sim uArch: cycles simulated: 15000  inst.: 3752704 (ipc=250.2) sim_rate=76585 (inst/sec) elapsed = 0:0:00:49 / Fri May 15 11:58:34 2015
GPGPU-Sim PTX: 3900000 instructions simulated : ctaid=(9,3,0) tid=(15,5,0)
GPGPU-Sim PTX: 4000000 instructions simulated : ctaid=(10,3,0) tid=(15,7,0)
GPGPU-Sim uArch: cycles simulated: 15500  inst.: 3979730 (ipc=256.8) sim_rate=78033 (inst/sec) elapsed = 0:0:00:51 / Fri May 15 11:58:36 2015
GPGPU-Sim PTX: 4100000 instructions simulated : ctaid=(8,3,0) tid=(10,0,0)
GPGPU-Sim PTX: 4200000 instructions simulated : ctaid=(9,0,0) tid=(6,4,0)
GPGPU-Sim PTX: 4300000 instructions simulated : ctaid=(7,4,0) tid=(1,7,0)
GPGPU-Sim uArch: cycles simulated: 16000  inst.: 4206715 (ipc=262.9) sim_rate=79371 (inst/sec) elapsed = 0:0:00:53 / Fri May 15 11:58:38 2015
GPGPU-Sim PTX: 4400000 instructions simulated : ctaid=(6,3,0) tid=(15,2,0)
GPGPU-Sim PTX: 4500000 instructions simulated : ctaid=(6,3,0) tid=(14,7,0)
GPGPU-Sim uArch: cycles simulated: 16500  inst.: 4436264 (ipc=268.9) sim_rate=80659 (inst/sec) elapsed = 0:0:00:55 / Fri May 15 11:58:40 2015
GPGPU-Sim PTX: 4600000 instructions simulated : ctaid=(6,3,0) tid=(4,4,0)
GPGPU-Sim PTX: 4700000 instructions simulated : ctaid=(12,3,0) tid=(7,0,0)
GPGPU-Sim PTX: 4800000 instructions simulated : ctaid=(11,2,0) tid=(11,2,0)
GPGPU-Sim uArch: cycles simulated: 17000  inst.: 4666228 (ipc=274.5) sim_rate=81863 (inst/sec) elapsed = 0:0:00:57 / Fri May 15 11:58:42 2015
GPGPU-Sim PTX: 4900000 instructions simulated : ctaid=(4,0,0) tid=(11,2,0)
GPGPU-Sim PTX: 5000000 instructions simulated : ctaid=(11,2,0) tid=(11,0,0)
GPGPU-Sim uArch: cycles simulated: 17500  inst.: 4898804 (ipc=279.9) sim_rate=83030 (inst/sec) elapsed = 0:0:00:59 / Fri May 15 11:58:44 2015
GPGPU-Sim PTX: 5100000 instructions simulated : ctaid=(15,3,0) tid=(11,0,0)
GPGPU-Sim PTX: 5200000 instructions simulated : ctaid=(1,0,0) tid=(3,2,0)
GPGPU-Sim uArch: cycles simulated: 18000  inst.: 5129648 (ipc=285.0) sim_rate=84092 (inst/sec) elapsed = 0:0:01:01 / Fri May 15 11:58:46 2015
GPGPU-Sim PTX: 5300000 instructions simulated : ctaid=(4,1,0) tid=(7,5,0)
GPGPU-Sim PTX: 5400000 instructions simulated : ctaid=(13,0,0) tid=(3,2,0)
GPGPU-Sim PTX: 5500000 instructions simulated : ctaid=(1,0,0) tid=(3,1,0)
GPGPU-Sim uArch: cycles simulated: 18500  inst.: 5358919 (ipc=289.7) sim_rate=85062 (inst/sec) elapsed = 0:0:01:03 / Fri May 15 11:58:48 2015
GPGPU-Sim PTX: 5600000 instructions simulated : ctaid=(1,0,0) tid=(11,4,0)
GPGPU-Sim PTX: 5700000 instructions simulated : ctaid=(1,3,0) tid=(7,5,0)
GPGPU-Sim uArch: cycles simulated: 19000  inst.: 5586024 (ipc=294.0) sim_rate=85938 (inst/sec) elapsed = 0:0:01:05 / Fri May 15 11:58:50 2015
GPGPU-Sim PTX: 5800000 instructions simulated : ctaid=(12,0,0) tid=(7,1,0)
GPGPU-Sim PTX: 5900000 instructions simulated : ctaid=(6,4,0) tid=(11,7,0)
GPGPU-Sim uArch: cycles simulated: 19500  inst.: 5812762 (ipc=298.1) sim_rate=86757 (inst/sec) elapsed = 0:0:01:07 / Fri May 15 11:58:52 2015
GPGPU-Sim PTX: 6000000 instructions simulated : ctaid=(11,0,0) tid=(0,4,0)
GPGPU-Sim PTX: 6100000 instructions simulated : ctaid=(0,1,0) tid=(0,6,0)
GPGPU-Sim PTX: 6200000 instructions simulated : ctaid=(13,1,0) tid=(8,1,0)
GPGPU-Sim uArch: cycles simulated: 20000  inst.: 6037674 (ipc=301.9) sim_rate=87502 (inst/sec) elapsed = 0:0:01:09 / Fri May 15 11:58:54 2015
GPGPU-Sim PTX: 6300000 instructions simulated : ctaid=(4,0,0) tid=(4,2,0)
GPGPU-Sim PTX: 6400000 instructions simulated : ctaid=(10,1,0) tid=(4,2,0)
GPGPU-Sim uArch: cycles simulated: 20500  inst.: 6259874 (ipc=305.4) sim_rate=88167 (inst/sec) elapsed = 0:0:01:11 / Fri May 15 11:58:56 2015
GPGPU-Sim PTX: 6500000 instructions simulated : ctaid=(9,1,0) tid=(4,1,0)
GPGPU-Sim PTX: 6600000 instructions simulated : ctaid=(12,3,0) tid=(9,3,0)
GPGPU-Sim uArch: cycles simulated: 21000  inst.: 6488624 (ipc=309.0) sim_rate=88885 (inst/sec) elapsed = 0:0:01:13 / Fri May 15 11:58:58 2015
GPGPU-Sim PTX: 6700000 instructions simulated : ctaid=(14,1,0) tid=(14,1,0)
GPGPU-Sim PTX: 6800000 instructions simulated : ctaid=(6,4,0) tid=(14,1,0)
GPGPU-Sim PTX: 6900000 instructions simulated : ctaid=(3,2,0) tid=(14,2,0)
GPGPU-Sim uArch: cycles simulated: 21500  inst.: 6718518 (ipc=312.5) sim_rate=89580 (inst/sec) elapsed = 0:0:01:15 / Fri May 15 11:59:00 2015
GPGPU-Sim PTX: 7000000 instructions simulated : ctaid=(0,1,0) tid=(14,2,0)
GPGPU-Sim PTX: 7100000 instructions simulated : ctaid=(11,1,0) tid=(14,4,0)
GPGPU-Sim uArch: cycles simulated: 22000  inst.: 6951040 (ipc=316.0) sim_rate=90273 (inst/sec) elapsed = 0:0:01:17 / Fri May 15 11:59:02 2015
GPGPU-Sim PTX: 7200000 instructions simulated : ctaid=(6,2,0) tid=(10,2,0)
GPGPU-Sim PTX: 7300000 instructions simulated : ctaid=(9,2,0) tid=(10,4,0)
GPGPU-Sim uArch: cycles simulated: 22500  inst.: 7181114 (ipc=319.2) sim_rate=90900 (inst/sec) elapsed = 0:0:01:19 / Fri May 15 11:59:04 2015
GPGPU-Sim PTX: 7400000 instructions simulated : ctaid=(8,1,0) tid=(10,2,0)
GPGPU-Sim PTX: 7500000 instructions simulated : ctaid=(14,3,0) tid=(10,2,0)
GPGPU-Sim PTX: 7600000 instructions simulated : ctaid=(3,1,0) tid=(10,6,0)
GPGPU-Sim uArch: cycles simulated: 23000  inst.: 7407226 (ipc=322.1) sim_rate=91447 (inst/sec) elapsed = 0:0:01:21 / Fri May 15 11:59:06 2015
GPGPU-Sim PTX: 7700000 instructions simulated : ctaid=(9,2,0) tid=(10,0,0)
GPGPU-Sim PTX: 7800000 instructions simulated : ctaid=(4,4,0) tid=(10,2,0)
GPGPU-Sim uArch: cycles simulated: 23500  inst.: 7635354 (ipc=324.9) sim_rate=91992 (inst/sec) elapsed = 0:0:01:23 / Fri May 15 11:59:08 2015
GPGPU-Sim PTX: 7900000 instructions simulated : ctaid=(12,2,0) tid=(11,3,0)
GPGPU-Sim PTX: 8000000 instructions simulated : ctaid=(14,0,0) tid=(11,5,0)
GPGPU-Sim uArch: cycles simulated: 24000  inst.: 7856292 (ipc=327.3) sim_rate=92426 (inst/sec) elapsed = 0:0:01:25 / Fri May 15 11:59:10 2015
GPGPU-Sim PTX: 8100000 instructions simulated : ctaid=(5,2,0) tid=(11,1,0)
GPGPU-Sim PTX: 8200000 instructions simulated : ctaid=(11,3,0) tid=(11,3,0)
GPGPU-Sim uArch: cycles simulated: 24500  inst.: 8080712 (ipc=329.8) sim_rate=92881 (inst/sec) elapsed = 0:0:01:27 / Fri May 15 11:59:12 2015
GPGPU-Sim PTX: 8300000 instructions simulated : ctaid=(7,0,0) tid=(7,1,0)
GPGPU-Sim PTX: 8400000 instructions simulated : ctaid=(0,4,0) tid=(15,5,0)
GPGPU-Sim PTX: 8500000 instructions simulated : ctaid=(3,3,0) tid=(11,1,0)
GPGPU-Sim uArch: cycles simulated: 25000  inst.: 8313875 (ipc=332.6) sim_rate=93414 (inst/sec) elapsed = 0:0:01:29 / Fri May 15 11:59:14 2015
GPGPU-Sim PTX: 8600000 instructions simulated : ctaid=(10,3,0) tid=(15,4,0)
GPGPU-Sim PTX: 8700000 instructions simulated : ctaid=(3,3,0) tid=(10,4,0)
GPGPU-Sim uArch: cycles simulated: 25500  inst.: 8546293 (ipc=335.1) sim_rate=93915 (inst/sec) elapsed = 0:0:01:31 / Fri May 15 11:59:16 2015
GPGPU-Sim PTX: 8800000 instructions simulated : ctaid=(13,2,0) tid=(6,6,0)
GPGPU-Sim PTX: 8900000 instructions simulated : ctaid=(6,2,0) tid=(8,7,0)
GPGPU-Sim PTX: 9000000 instructions simulated : ctaid=(2,4,0) tid=(8,6,0)
GPGPU-Sim uArch: cycles simulated: 26000  inst.: 8772392 (ipc=337.4) sim_rate=94326 (inst/sec) elapsed = 0:0:01:33 / Fri May 15 11:59:18 2015
GPGPU-Sim PTX: 9100000 instructions simulated : ctaid=(11,2,0) tid=(9,7,0)
GPGPU-Sim PTX: 9200000 instructions simulated : ctaid=(7,1,0) tid=(15,6,0)
GPGPU-Sim uArch: cycles simulated: 26500  inst.: 9000409 (ipc=339.6) sim_rate=93754 (inst/sec) elapsed = 0:0:01:36 / Fri May 15 11:59:21 2015
GPGPU-Sim PTX: 9300000 instructions simulated : ctaid=(4,0,0) tid=(7,0,0)
GPGPU-Sim PTX: 9400000 instructions simulated : ctaid=(1,1,0) tid=(4,7,0)
GPGPU-Sim uArch: cycles simulated: 27000  inst.: 9228176 (ipc=341.8) sim_rate=94165 (inst/sec) elapsed = 0:0:01:38 / Fri May 15 11:59:23 2015
GPGPU-Sim PTX: 9500000 instructions simulated : ctaid=(9,4,0) tid=(9,3,0)
GPGPU-Sim uArch: Shader 5 finished CTA #4 (27180,0), 4 CTAs running
GPGPU-Sim uArch: core:  5, cta: 4 initialized @(27181,0)
GPGPU-Sim uArch: Shader 4 finished CTA #4 (27201,0), 4 CTAs running
GPGPU-Sim uArch: core:  4, cta: 4 initialized @(27202,0)
GPGPU-Sim uArch: Shader 2 finished CTA #4 (27212,0), 4 CTAs running
GPGPU-Sim uArch: core:  2, cta: 4 initialized @(27213,0)
GPGPU-Sim uArch: Shader 4 finished CTA #3 (27230,0), 4 CTAs running
GPGPU-Sim uArch: core:  4, cta: 3 initialized @(27231,0)
GPGPU-Sim PTX: 9600000 instructions simulated : ctaid=(0,1,0) tid=(3,3,0)
GPGPU-Sim uArch: Shader 3 finished CTA #4 (27357,0), 4 CTAs running
GPGPU-Sim uArch: core:  3, cta: 4 initialized @(27358,0)
GPGPU-Sim uArch: Shader 6 finished CTA #3 (27379,0), 4 CTAs running
GPGPU-Sim uArch: core:  6, cta: 3 initialized @(27380,0)
GPGPU-Sim uArch: Shader 6 finished CTA #4 (27412,0), 4 CTAs running
GPGPU-Sim uArch: core:  6, cta: 4 initialized @(27413,0)
GPGPU-Sim uArch: Shader 2 finished CTA #2 (27419,0), 4 CTAs running
GPGPU-Sim uArch: core:  2, cta: 2 initialized @(27420,0)
GPGPU-Sim uArch: Shader 0 finished CTA #3 (27431,0), 4 CTAs running
GPGPU-Sim uArch: core:  0, cta: 3 initialized @(27432,0)
GPGPU-Sim uArch: Shader 0 finished CTA #4 (27439,0), 4 CTAs running
GPGPU-Sim uArch: core:  0, cta: 4 initialized @(27440,0)
GPGPU-Sim uArch: Shader 3 finished CTA #3 (27468,0), 4 CTAs running
GPGPU-Sim uArch: core:  3, cta: 3 initialized @(27469,0)
GPGPU-Sim uArch: cycles simulated: 27500  inst.: 9440232 (ipc=343.3) sim_rate=94402 (inst/sec) elapsed = 0:0:01:40 / Fri May 15 11:59:25 2015
GPGPU-Sim PTX: 9700000 instructions simulated : ctaid=(8,4,0) tid=(13,4,0)
GPGPU-Sim uArch: Shader 8 finished CTA #3 (27551,0), 4 CTAs running
GPGPU-Sim uArch: core:  8, cta: 3 initialized @(27552,0)
GPGPU-Sim uArch: Shader 5 finished CTA #2 (27555,0), 4 CTAs running
GPGPU-Sim uArch: core:  5, cta: 2 initialized @(27556,0)
GPGPU-Sim uArch: Shader 4 finished CTA #2 (27574,0), 4 CTAs running
GPGPU-Sim uArch: core:  4, cta: 2 initialized @(27575,0)
GPGPU-Sim uArch: Shader 8 finished CTA #4 (27598,0), 4 CTAs running
GPGPU-Sim uArch: core:  8, cta: 4 initialized @(27599,0)
GPGPU-Sim PTX: 9800000 instructions simulated : ctaid=(6,3,0) tid=(5,3,0)
GPGPU-Sim uArch: Shader 7 finished CTA #3 (27896,0), 4 CTAs running
GPGPU-Sim uArch: core:  7, cta: 3 initialized @(27897,0)
GPGPU-Sim uArch: Shader 7 finished CTA #4 (27926,0), 4 CTAs running
GPGPU-Sim uArch: core:  7, cta: 4 initialized @(27927,0)
GPGPU-Sim uArch: cycles simulated: 28000  inst.: 9638185 (ipc=344.2) sim_rate=94492 (inst/sec) elapsed = 0:0:01:42 / Fri May 15 11:59:27 2015
GPGPU-Sim PTX: 9900000 instructions simulated : ctaid=(5,4,0) tid=(9,7,0)
GPGPU-Sim uArch: Shader 9 finished CTA #3 (28218,0), 4 CTAs running
GPGPU-Sim uArch: core:  9, cta: 3 initialized @(28219,0)
GPGPU-Sim uArch: Shader 9 finished CTA #4 (28275,0), 4 CTAs running
GPGPU-Sim uArch: core:  9, cta: 4 initialized @(28276,0)
GPGPU-Sim PTX: 10000000 instructions simulated : ctaid=(11,1,0) tid=(14,3,0)
GPGPU-Sim uArch: Shader 1 finished CTA #4 (28381,0), 4 CTAs running
GPGPU-Sim uArch: core:  1, cta: 4 initialized @(28382,0)
GPGPU-Sim uArch: Shader 1 finished CTA #3 (28442,0), 4 CTAs running
GPGPU-Sim uArch: core:  1, cta: 3 initialized @(28443,0)
GPGPU-Sim uArch: Shader 1 finished CTA #2 (28463,0), 4 CTAs running
GPGPU-Sim uArch: core:  1, cta: 2 initialized @(28464,0)
GPGPU-Sim uArch: cycles simulated: 28500  inst.: 9792172 (ipc=343.6) sim_rate=94155 (inst/sec) elapsed = 0:0:01:44 / Fri May 15 11:59:29 2015
GPGPU-Sim PTX: 10100000 instructions simulated : ctaid=(9,4,0) tid=(9,7,0)
GPGPU-Sim uArch: Shader 8 finished CTA #2 (28657,0), 4 CTAs running
GPGPU-Sim uArch: core:  8, cta: 2 initialized @(28658,0)
GPGPU-Sim uArch: Shader 5 finished CTA #3 (28741,0), 4 CTAs running
GPGPU-Sim uArch: core:  5, cta: 3 initialized @(28742,0)
GPGPU-Sim PTX: 10200000 instructions simulated : ctaid=(6,0,0) tid=(6,5,0)
GPGPU-Sim uArch: cycles simulated: 29000  inst.: 9971362 (ipc=343.8) sim_rate=93190 (inst/sec) elapsed = 0:0:01:47 / Fri May 15 11:59:32 2015
GPGPU-Sim uArch: Shader 0 finished CTA #2 (29027,0), 4 CTAs running
GPGPU-Sim uArch: core:  0, cta: 2 initialized @(29028,0)
GPGPU-Sim uArch: Shader 10 finished CTA #4 (29102,0), 4 CTAs running
GPGPU-Sim uArch: core: 10, cta: 4 initialized @(29103,0)
GPGPU-Sim PTX: 10300000 instructions simulated : ctaid=(10,1,0) tid=(3,5,0)
GPGPU-Sim uArch: Shader 6 finished CTA #2 (29181,0), 4 CTAs running
GPGPU-Sim uArch: core:  6, cta: 2 initialized @(29182,0)
GPGPU-Sim PTX: 10400000 instructions simulated : ctaid=(8,1,0) tid=(3,5,0)
GPGPU-Sim uArch: cycles simulated: 29500  inst.: 10160381 (ipc=344.4) sim_rate=93214 (inst/sec) elapsed = 0:0:01:49 / Fri May 15 11:59:34 2015
GPGPU-Sim PTX: 10500000 instructions simulated : ctaid=(15,5,0) tid=(1,3,0)
GPGPU-Sim PTX: 10600000 instructions simulated : ctaid=(9,2,0) tid=(15,7,0)
GPGPU-Sim uArch: cycles simulated: 30000  inst.: 10341702 (ipc=344.7) sim_rate=93168 (inst/sec) elapsed = 0:0:01:51 / Fri May 15 11:59:36 2015
GPGPU-Sim PTX: 10700000 instructions simulated : ctaid=(14,5,0) tid=(8,7,0)
GPGPU-Sim PTX: 10800000 instructions simulated : ctaid=(14,5,0) tid=(0,0,0)
GPGPU-Sim uArch: cycles simulated: 30500  inst.: 10542292 (ipc=345.6) sim_rate=93294 (inst/sec) elapsed = 0:0:01:53 / Fri May 15 11:59:38 2015
GPGPU-Sim PTX: 10900000 instructions simulated : ctaid=(10,5,0) tid=(1,0,0)
GPGPU-Sim PTX: 11000000 instructions simulated : ctaid=(12,4,0) tid=(5,1,0)
GPGPU-Sim uArch: cycles simulated: 31000  inst.: 10737544 (ipc=346.4) sim_rate=93369 (inst/sec) elapsed = 0:0:01:55 / Fri May 15 11:59:40 2015
GPGPU-Sim uArch: Shader 14 finished CTA #2 (31011,0), 4 CTAs running
GPGPU-Sim uArch: core: 14, cta: 2 initialized @(31012,0)
GPGPU-Sim uArch: Shader 2 finished CTA #3 (31096,0), 4 CTAs running
GPGPU-Sim uArch: core:  2, cta: 3 initialized @(31097,0)
GPGPU-Sim PTX: 11100000 instructions simulated : ctaid=(0,5,0) tid=(3,0,0)
GPGPU-Sim PTX: 11200000 instructions simulated : ctaid=(4,5,0) tid=(13,4,0)
GPGPU-Sim uArch: cycles simulated: 31500  inst.: 10938643 (ipc=347.3) sim_rate=93492 (inst/sec) elapsed = 0:0:01:57 / Fri May 15 11:59:42 2015
GPGPU-Sim uArch: Shader 3 finished CTA #1 (31542,0), 4 CTAs running
GPGPU-Sim uArch: core:  3, cta: 1 initialized @(31543,0)
GPGPU-Sim uArch: Shader 3 finished CTA #2 (31578,0), 4 CTAs running
GPGPU-Sim uArch: core:  3, cta: 2 initialized @(31579,0)
GPGPU-Sim PTX: 11300000 instructions simulated : ctaid=(11,5,0) tid=(13,0,0)
GPGPU-Sim uArch: Shader 14 finished CTA #0 (31799,0), 4 CTAs running
GPGPU-Sim uArch: core: 14, cta: 0 initialized @(31800,0)
GPGPU-Sim PTX: 11400000 instructions simulated : ctaid=(7,6,0) tid=(10,1,0)
GPGPU-Sim uArch: cycles simulated: 32000  inst.: 11141948 (ipc=348.2) sim_rate=93629 (inst/sec) elapsed = 0:0:01:59 / Fri May 15 11:59:44 2015
GPGPU-Sim PTX: 11500000 instructions simulated : ctaid=(8,3,0) tid=(12,7,0)
GPGPU-Sim PTX: 11600000 instructions simulated : ctaid=(8,4,0) tid=(11,5,0)
GPGPU-Sim uArch: cycles simulated: 32500  inst.: 11345304 (ipc=349.1) sim_rate=93762 (inst/sec) elapsed = 0:0:02:01 / Fri May 15 11:59:46 2015
GPGPU-Sim PTX: 11700000 instructions simulated : ctaid=(6,4,0) tid=(13,1,0)
GPGPU-Sim uArch: Shader 7 finished CTA #2 (32832,0), 4 CTAs running
GPGPU-Sim uArch: core:  7, cta: 2 initialized @(32833,0)
GPGPU-Sim PTX: 11800000 instructions simulated : ctaid=(6,4,0) tid=(10,6,0)
GPGPU-Sim uArch: cycles simulated: 33000  inst.: 11548523 (ipc=350.0) sim_rate=93890 (inst/sec) elapsed = 0:0:02:03 / Fri May 15 11:59:48 2015
GPGPU-Sim PTX: 11900000 instructions simulated : ctaid=(8,3,0) tid=(2,5,0)
GPGPU-Sim PTX: 12000000 instructions simulated : ctaid=(2,5,0) tid=(12,3,0)
GPGPU-Sim uArch: cycles simulated: 33500  inst.: 11749626 (ipc=350.7) sim_rate=93997 (inst/sec) elapsed = 0:0:02:05 / Fri May 15 11:59:50 2015
GPGPU-Sim PTX: 12100000 instructions simulated : ctaid=(5,5,0) tid=(11,6,0)
GPGPU-Sim uArch: Shader 1 finished CTA #1 (33624,0), 4 CTAs running
GPGPU-Sim uArch: core:  1, cta: 1 initialized @(33625,0)
GPGPU-Sim PTX: 12200000 instructions simulated : ctaid=(6,6,0) tid=(3,6,0)
GPGPU-Sim uArch: cycles simulated: 34000  inst.: 11951863 (ipc=351.5) sim_rate=94109 (inst/sec) elapsed = 0:0:02:07 / Fri May 15 11:59:52 2015
GPGPU-Sim PTX: 12300000 instructions simulated : ctaid=(1,5,0) tid=(3,3,0)
GPGPU-Sim PTX: 12400000 instructions simulated : ctaid=(3,5,0) tid=(11,6,0)
GPGPU-Sim uArch: Shader 2 finished CTA #0 (34418,0), 4 CTAs running
GPGPU-Sim uArch: core:  2, cta: 0 initialized @(34419,0)
GPGPU-Sim uArch: cycles simulated: 34500  inst.: 12154586 (ipc=352.3) sim_rate=94221 (inst/sec) elapsed = 0:0:02:09 / Fri May 15 11:59:54 2015
GPGPU-Sim uArch: Shader 2 finished CTA #1 (34512,0), 4 CTAs running
GPGPU-Sim uArch: core:  2, cta: 1 initialized @(34513,0)
GPGPU-Sim PTX: 12500000 instructions simulated : ctaid=(8,0,0) tid=(10,5,0)
GPGPU-Sim PTX: 12600000 instructions simulated : ctaid=(7,6,0) tid=(8,4,0)
GPGPU-Sim uArch: cycles simulated: 35000  inst.: 12361971 (ipc=353.2) sim_rate=94366 (inst/sec) elapsed = 0:0:02:11 / Fri May 15 11:59:56 2015
GPGPU-Sim PTX: 12700000 instructions simulated : ctaid=(2,5,0) tid=(15,2,0)
GPGPU-Sim PTX: 12800000 instructions simulated : ctaid=(6,4,0) tid=(15,5,0)
GPGPU-Sim PTX: 12900000 instructions simulated : ctaid=(9,2,0) tid=(1,6,0)
GPGPU-Sim uArch: cycles simulated: 35500  inst.: 12565700 (ipc=354.0) sim_rate=94478 (inst/sec) elapsed = 0:0:02:13 / Fri May 15 11:59:58 2015
GPGPU-Sim uArch: Shader 0 finished CTA #0 (35658,0), 4 CTAs running
GPGPU-Sim uArch: core:  0, cta: 0 initialized @(35659,0)
GPGPU-Sim uArch: Shader 0 finished CTA #1 (35680,0), 4 CTAs running
GPGPU-Sim uArch: core:  0, cta: 1 initialized @(35681,0)
GPGPU-Sim PTX: 13000000 instructions simulated : ctaid=(7,6,0) tid=(9,6,0)
GPGPU-Sim PTX: 13100000 instructions simulated : ctaid=(4,5,0) tid=(8,1,0)
GPGPU-Sim uArch: cycles simulated: 36000  inst.: 12767674 (ipc=354.7) sim_rate=94575 (inst/sec) elapsed = 0:0:02:15 / Fri May 15 12:00:00 2015
GPGPU-Sim PTX: 13200000 instructions simulated : ctaid=(9,0,0) tid=(8,1,0)
GPGPU-Sim PTX: 13300000 instructions simulated : ctaid=(12,5,0) tid=(10,5,0)
GPGPU-Sim uArch: cycles simulated: 36500  inst.: 12964539 (ipc=355.2) sim_rate=93945 (inst/sec) elapsed = 0:0:02:18 / Fri May 15 12:00:03 2015
GPGPU-Sim PTX: 13400000 instructions simulated : ctaid=(7,4,0) tid=(5,5,0)
GPGPU-Sim PTX: 13500000 instructions simulated : ctaid=(13,5,0) tid=(11,6,0)
GPGPU-Sim uArch: cycles simulated: 37000  inst.: 13151019 (ipc=355.4) sim_rate=93935 (inst/sec) elapsed = 0:0:02:20 / Fri May 15 12:00:05 2015
GPGPU-Sim PTX: 13600000 instructions simulated : ctaid=(9,4,0) tid=(12,1,0)
GPGPU-Sim uArch: cycles simulated: 37500  inst.: 13335491 (ipc=355.6) sim_rate=94577 (inst/sec) elapsed = 0:0:02:21 / Fri May 15 12:00:06 2015
GPGPU-Sim PTX: 13700000 instructions simulated : ctaid=(9,6,0) tid=(1,6,0)
GPGPU-Sim PTX: 13800000 instructions simulated : ctaid=(7,4,0) tid=(6,1,0)
GPGPU-Sim PTX: 13900000 instructions simulated : ctaid=(5,5,0) tid=(11,2,0)
GPGPU-Sim uArch: cycles simulated: 38000  inst.: 13535141 (ipc=356.2) sim_rate=94651 (inst/sec) elapsed = 0:0:02:23 / Fri May 15 12:00:08 2015
GPGPU-Sim PTX: 14000000 instructions simulated : ctaid=(5,6,0) tid=(8,2,0)
GPGPU-Sim PTX: 14100000 instructions simulated : ctaid=(5,5,0) tid=(6,1,0)
GPGPU-Sim uArch: cycles simulated: 38500  inst.: 13734966 (ipc=356.8) sim_rate=94723 (inst/sec) elapsed = 0:0:02:25 / Fri May 15 12:00:10 2015
GPGPU-Sim PTX: 14200000 instructions simulated : ctaid=(14,6,0) tid=(3,4,0)
GPGPU-Sim PTX: 14300000 instructions simulated : ctaid=(10,6,0) tid=(3,2,0)
GPGPU-Sim uArch: cycles simulated: 39000  inst.: 13939929 (ipc=357.4) sim_rate=94829 (inst/sec) elapsed = 0:0:02:27 / Fri May 15 12:00:12 2015
GPGPU-Sim PTX: 14400000 instructions simulated : ctaid=(10,1,0) tid=(11,4,0)
GPGPU-Sim PTX: 14500000 instructions simulated : ctaid=(9,2,0) tid=(1,1,0)
GPGPU-Sim uArch: cycles simulated: 39500  inst.: 14136214 (ipc=357.9) sim_rate=94873 (inst/sec) elapsed = 0:0:02:29 / Fri May 15 12:00:14 2015
GPGPU-Sim uArch: Shader 3 finished CTA #0 (39667,0), 4 CTAs running
GPGPU-Sim uArch: core:  3, cta: 0 initialized @(39668,0)
GPGPU-Sim PTX: 14600000 instructions simulated : ctaid=(12,4,0) tid=(12,7,0)
GPGPU-Sim PTX: 14700000 instructions simulated : ctaid=(7,6,0) tid=(8,3,0)
[...]
traffic_breakdown_memtocore[LOCAL_ACC_W] = 346568 {8:43321,}
maxmrqlatency = 859 
maxdqlatency = 0 
maxmflatency = 2225 
averagemflatency = 239 
max_icnt2mem_latency = 1384 
max_icnt2sh_latency = 208913 
mrq_lat_table:11396 	1322 	911 	1655 	4002 	3007 	2851 	1807 	275 	23 	0 	0 	0 	0 	0 	0 	0 	0 	0 	0 	0 	0 	0 	0 	0 	0 	0 	0 	0 	0 	0 	0 	
dq_lat_table:0 	0 	0 	0 	0 	0 	0 	0 	0 	0 	0 	0 	0 	0 	0 	0 	0 	0 	0 	0 	0 	0 	0 	0 	0 	0 	0 	0 	0 	0 	0 	0 	
mf_lat_table:0 	0 	0 	0 	0 	0 	0 	50808 	6188 	3974 	922 	2 	0 	0 	0 	0 	0 	0 	0 	0 	0 	0 	0 	0 	0 	0 	0 	0 	0 	0 	0 	0 	
icnt2mem_lat_table:0 	0 	0 	43203 	17254 	11278 	16540 	1446 	1540 	704 	26 	0 	0 	0 	0 	0 	0 	0 	0 	0 	0 	0 	0 	0 	
icnt2sh_lat_table:0 	0 	0 	5467 	3703 	1091 	120 	0 	0 	204 	470 	1180 	2850 	2880 	5352 	7171 	14067 	17339 	0 	0 	0 	0 	0 	0 	
mf_lat_pw_table:0 	0 	0 	0 	0 	0 	0 	382 	8 	16 	2 	0 	0 	0 	0 	0 	0 	0 	0 	0 	0 	0 	0 	0 	0 	0 	0 	0 	0 	0 	0 	0 	
maximum concurrent accesses to same row:
dram[0]:        48        52        52        48        24        24        22        35        22        20        29        17        29        20        30        32 
dram[1]:        46        46        44        40        18        20        17        44        51        33        29        23        34        25        28        47 
dram[2]:        54        62        60        52        24        28        40        28        24        27        28        28        29        24        30        34 
dram[3]:        52        58        56        50        18        23        30        20        36        25        28        32        36        23        34        24 
dram[4]:        58        58        56        56        24        24        28        18        16        43        19        18        16        25        41        28 
dram[5]:        52        56        56        50        16        22        14        22        25        26        16        21        21        35        35        28 
maximum service time to same row:
dram[0]:     23906     27946     24062     28401     26923     38697     31540     28053     20543     28393     43166     28136     56875     31878     43055     28465 
dram[1]:     19943     34578     24394     56445     32369     41134     19922     24451     20649     28975     34974     45146     63882     69053     43507     32839 
dram[2]:     43561     22317     33625     34018     37374     37241     29255     21887     28135     29470     28454     38388     65453     87194     37448     34232 
dram[3]:     33292     21560     49046     59105     39169     40716     21812     24775     21523     18322     30629     40106     53780     96464     39512     61563 
dram[4]:     18500     22916     39721     44077     38686     24180     19847     16756     24097     21613     39025     33115     66528     60150     54356     27105 
dram[5]:     20613     25978     30463     21972     22171     35419     14975     19003     17308     21206     31241     21103     29768     32741     27303     38519 
average row accesses per activate:
dram[0]:  4.771930  6.769231  5.674418  6.146341  4.000000  4.056338  4.111111  3.738636  3.975000  4.276316  4.557377  3.772152  4.789474  4.318841  5.418605  4.703704 
dram[1]:  4.000000  4.944445  4.654545  5.534883  3.110000  3.445783  3.532609  3.835294  4.102273  3.851852  3.825000  3.934211  4.948276  4.328571  4.814815  4.886364 
dram[2]:  5.739130  6.439024  6.918919  6.341464  4.184616  4.027397  3.727273  4.656250  3.643678  4.730159  4.094594  3.922078  5.977273  4.303030  4.830189  6.861111 
dram[3]:  5.809524  5.339622  8.033334 10.304348  3.887097  3.451613  3.729412  3.913580  4.898305  3.819277  4.432836  3.974026  6.894737  4.455883  5.790698  5.558139 
dram[4]:  6.395349  5.653061  6.000000  5.489362  3.779221  3.576923  3.949367  3.207921  3.500000  3.735632  3.675000  4.109589  3.691358  4.333333  4.509434  4.886793 
dram[5]:  4.483333  5.978261  5.911111  4.700000  3.697368  4.338710  3.196262  4.000000  3.387755  4.053333  3.853658  4.117647  4.126760  4.616667  5.037037  5.600000 
average row locality = 27249/6211 = 4.387216
number of total memory accesses made:
dram[0]:         0         0         0         0         0         0         0         0         0         0         0         0         0         0         0         0 
dram[1]:         0         0         0         0         0         0         0         0         0         0         0         0         0         0         0         0 
dram[2]:         0         0         0         0         0         0         0         0         0         0         0         0         0         0         0         0 
dram[3]:         0         0         0         0         0         0         0         0         0         0         0         0         0         0         0         0 
dram[4]:         0         0         0         0         0         0         0         0         0         0         0         0         0         0         0         0 
dram[5]:         0         0         0         0         0         0         0         0         0         0         0         0         0         0         0         0 
total accesses: 0
min_bank_accesses = 0!
min_chip_accesses = 0!
number of total read accesses:
dram[0]:       124       120       109       111       122       120       123       131       132       134       118       132       123       135       105       114 
dram[1]:       133       119       110       105       134       120       130       128       148       131       132       125       129       137       117       102 
dram[2]:       118       123       115       114       119       123       132       121       133       124       133       129       120       127       116       111 
dram[3]:       111       126       106       103       103       137       129       127       122       132       124       134       120       134       112       109 
dram[4]:       124       124       108       110       121       116       127       135       137       133       121       129       134       125       109       118 
dram[5]:       117       122       119       103       124       112       137       119       136       129       136       119       131       126       120       106 
total reads: 11767
bank skew: 148/102 = 1.45
chip skew: 2000/1929 = 1.04
number of total write accesses:
dram[0]:       148       144       135       141       166       168       173       198       186       191       160       166       150       163       128       140 
dram[1]:       163       148       146       133       177       166       195       198       213       181       174       174       158       166       143       113 
dram[2]:       146       141       141       146       153       171       196       177       184       174       170       173       143       157       140       136 
dram[3]:       133       157       135       134       138       184       188       190       167       185       173       172       142       169       137       130 
dram[4]:       151       153       138       148       170       163       185       189       199       192       173       171       165       148       130       141 
dram[5]:       152       153       147       132       157       157       205       181       196       175       180       161       162       151       152       118 
total reads: 15482
bank skew: 213/113 = 1.88
chip skew: 2648/2534 = 1.04
average mf latency per bank:
dram[0]:        541       481       567       527       546       565       622       530       545       524       597       604       672       588       612       618
dram[1]:        498       479       500       529       473       499       536       506       451       534       536       581       603       542       519       644
dram[2]:        532       501       557       515       593       531       575       619       533       566       579       573       668       595       583       596
dram[3]:        485       476       544       534       543       457       513       518       526       507       549       527       615       529       535       573
dram[4]:        509       450       552       518       548       628       609       563       527       538       584       605       591       650       611       581
dram[5]:        477       427       503       531       498       506       499       530       483       507       497       584       540       558       477       603
maximum mf latency per bank:
dram[0]:       1304      1110      1449      1187      1499      1863      1661      1382      1726      1631      1660      1253      1663      1576      1500      1573
dram[1]:        987      1217      1146      1056      1659      1410      1271      1208      1025      1003      1141      1110      1003      1057      1087      1007
dram[2]:       1382      1462      1636      1450      1606      1794      1927      1717      1851      1724      1665      1761      1760      1716      1546      1564
dram[3]:       1191      1296      1375      1343      1215      1380      1060      1020      1245      1129      1159      1051      1014      1010      1101       973
dram[4]:       1489      1433      1604      1647      1659      2225      1885      1898      1947      1875      1982      2016      2057      1987      1766      1993
dram[5]:       1271      1196      1394      1345      1324      1265      1043      1268      1044      1307      1060       867       988      1081       828       846

Number of Memory Banks Accessed per Memory Operation per Warp (from 0):
0	0	0	0	0	0	0	0	0	0	0	0	0	0	0	0	0	0	0	0	0	0	0	0	0	0	0	0	0	0	0	0	0	0	0	0	0	0	0	0	0	0	0	0	0	0	0	0	0	0	0	0	0	0	0	0	0	0	0	0	0	0	0	0	0	0	0	0	0	0	0	0	0	0	0	0	0	0	0	0	0	0	0	0	0	0	0	0	0	0	0	0	0	0	0	0	
Average # of Memory Banks Accessed per Memory Operation per Warp=-nan

position of mrq chosen
0	0	0	0	0	0	0	0	0	0	0	0	0	0	0	0	

average position of mrq chosen = -nan
Memory Partition 0: 
Cache L2_bank_000:
MSHR contents

Cache L2_bank_001:
MSHR contents

In Dram Latency Queue (total = 0): 
DRAM[0]: 16 bks, busW=4 BL=8 CL=12, tRRD=2 tCCD=6, tRCD=12 tRAS=28 tRP=12 tRC=40
n_cmd=275766 n_nop=265175 n_act=1002 n_pre=986 n_req=4510 n_rd=3906 n_write=4697 bw_util=0.06239
n_activity=46254 dram_eff=0.372
bk0: 248a 268431i bk1: 240a 268710i bk2: 218a 268356i bk3: 222a 268013i bk4: 244a 265881i bk5: 240a 266208i bk6: 246a 265876i bk7: 262a 264993i bk8: 264a 266752i bk9: 268a 266614i bk10: 236a 267272i bk11: 264a 265935i bk12: 246a 267043i bk13: 270a 266172i bk14: 210a 268760i bk15: 228a 268339i 
dram_util_bins: 0 0 0 0 0 0 0 0 0 0
dram_eff_bins: 0 0 0 0 0 0 0 0 0 0
mrqq: max=16 avg=0.776771
Memory Partition 1: 
Cache L2_bank_002:
MSHR contents

Cache L2_bank_003:
MSHR contents

In Dram Latency Queue (total = 0): 
DRAM[1]: 16 bks, busW=4 BL=8 CL=12, tRRD=2 tCCD=6, tRCD=12 tRAS=28 tRP=12 tRC=40
n_cmd=275766 n_nop=264659 n_act=1137 n_pre=1121 n_req=4648 n_rd=4000 n_write=4849 bw_util=0.06418
n_activity=48194 dram_eff=0.3672
bk0: 266a 267344i bk1: 238a 267794i bk2: 220a 267747i bk3: 210a 268519i bk4: 268a 265642i bk5: 240a 265901i bk6: 260a 265152i bk7: 256a 265474i bk8: 296a 266298i bk9: 262a 266643i bk10: 264a 266236i bk11: 250a 266358i bk12: 258a 267051i bk13: 274a 266167i bk14: 234a 267780i bk15: 204a 268629i 
dram_util_bins: 0 0 0 0 0 0 0 0 0 0
dram_eff_bins: 0 0 0 0 0 0 0 0 0 0
mrqq: max=16 avg=0.691488
Memory Partition 2: 
Cache L2_bank_004:
MSHR contents

Cache L2_bank_005:
MSHR contents

In Dram Latency Queue (total = 0): 
DRAM[2]: 16 bks, busW=4 BL=8 CL=12, tRRD=2 tCCD=6, tRCD=12 tRAS=28 tRP=12 tRC=40
n_cmd=275766 n_nop=265296 n_act=955 n_pre=939 n_req=4506 n_rd=3916 n_write=4660 bw_util=0.0622
n_activity=46134 dram_eff=0.3718
bk0: 236a 269024i bk1: 246a 268484i bk2: 230a 268764i bk3: 228a 268522i bk4: 238a 267274i bk5: 246a 266592i bk6: 264a 265345i bk7: 242a 265932i bk8: 266a 266746i bk9: 248a 267707i bk10: 266a 266674i bk11: 258a 266576i bk12: 240a 267383i bk13: 254a 266847i bk14: 232a 268868i bk15: 222a 269051i 
dram_util_bins: 0 0 0 0 0 0 0 0 0 0
dram_eff_bins: 0 0 0 0 0 0 0 0 0 0
mrqq: max=16 avg=0.788589
Memory Partition 3: 
Cache L2_bank_006:
MSHR contents

Cache L2_bank_007:
MSHR contents

In Dram Latency Queue (total = 0): 
DRAM[3]: 16 bks, busW=4 BL=8 CL=12, tRRD=2 tCCD=6, tRCD=12 tRAS=28 tRP=12 tRC=40
n_cmd=275766 n_nop=265396 n_act=947 n_pre=931 n_req=4463 n_rd=3858 n_write=4634 bw_util=0.06159
n_activity=45757 dram_eff=0.3712
bk0: 222a 269342i bk1: 252a 268672i bk2: 212a 269264i bk3: 206a 269208i bk4: 206a 268189i bk5: 274a 266566i bk6: 258a 265855i bk7: 254a 265285i bk8: 244a 267401i bk9: 264a 266138i bk10: 248a 267324i bk11: 268a 266464i bk12: 240a 267548i bk13: 268a 266494i bk14: 224a 268384i bk15: 218a 268802i 
dram_util_bins: 0 0 0 0 0 0 0 0 0 0
dram_eff_bins: 0 0 0 0 0 0 0 0 0 0
mrqq: max=16 avg=0.707397
Memory Partition 4: 
Cache L2_bank_008:
MSHR contents

Cache L2_bank_009:
MSHR contents

In Dram Latency Queue (total = 0): 
DRAM[4]: 16 bks, busW=4 BL=8 CL=12, tRRD=2 tCCD=6, tRCD=12 tRAS=28 tRP=12 tRC=40
n_cmd=275766 n_nop=264834 n_act=1101 n_pre=1085 n_req=4587 n_rd=3942 n_write=4804 bw_util=0.06343
n_activity=47867 dram_eff=0.3654
bk0: 248a 268576i bk1: 248a 268750i bk2: 216a 269117i bk3: 220a 268345i bk4: 242a 266768i bk5: 232a 266202i bk6: 254a 265615i bk7: 270a 265495i bk8: 274a 266164i bk9: 266a 266802i bk10: 242a 266669i bk11: 258a 266628i bk12: 268a 266427i bk13: 250a 266588i bk14: 218a 268698i bk15: 236a 268676i 
dram_util_bins: 0 0 0 0 0 0 0 0 0 0
dram_eff_bins: 0 0 0 0 0 0 0 0 0 0
mrqq: max=16 avg=0.758143
Memory Partition 5: 
Cache L2_bank_010:
MSHR contents

Cache L2_bank_011:
MSHR contents

In Dram Latency Queue (total = 0): 
DRAM[5]: 16 bks, busW=4 BL=8 CL=12, tRRD=2 tCCD=6, tRCD=12 tRAS=28 tRP=12 tRC=40
n_cmd=275766 n_nop=265012 n_act=1069 n_pre=1053 n_req=4535 n_rd=3912 n_write=4720 bw_util=0.0626
n_activity=47473 dram_eff=0.3637
bk0: 234a 268247i bk1: 244a 268864i bk2: 238a 269244i bk3: 206a 268808i bk4: 248a 266572i bk5: 224a 267241i bk6: 274a 264893i bk7: 238a 266261i bk8: 272a 266352i bk9: 258a 266618i bk10: 272a 266914i bk11: 238a 267071i bk12: 262a 267304i bk13: 252a 267198i bk14: 240a 268501i bk15: 212a 269046i 
dram_util_bins: 0 0 0 0 0 0 0 0 0 0
dram_eff_bins: 0 0 0 0 0 0 0 0 0 0
mrqq: max=16 avg=0.656611

========= L2 cache stats =========
L2_cache_bank[0]: Access = 7536, Miss = 956, Miss_rate = 0.127, Pending_hits = 50, Reservation_fails = 862
L2_cache_bank[1]: Access = 7939, Miss = 997, Miss_rate = 0.126, Pending_hits = 46, Reservation_fails = 401
L2_cache_bank[2]: Access = 7213, Miss = 1033, Miss_rate = 0.143, Pending_hits = 66, Reservation_fails = 1195
L2_cache_bank[3]: Access = 7715, Miss = 967, Miss_rate = 0.125, Pending_hits = 52, Reservation_fails = 477
L2_cache_bank[4]: Access = 7083, Miss = 986, Miss_rate = 0.139, Pending_hits = 51, Reservation_fails = 712
L2_cache_bank[5]: Access = 7649, Miss = 972, Miss_rate = 0.127, Pending_hits = 53, Reservation_fails = 384
L2_cache_bank[6]: Access = 7563, Miss = 927, Miss_rate = 0.123, Pending_hits = 50, Reservation_fails = 316
L2_cache_bank[7]: Access = 8320, Miss = 1002, Miss_rate = 0.120, Pending_hits = 58, Reservation_fails = 307
L2_cache_bank[8]: Access = 7810, Miss = 981, Miss_rate = 0.126, Pending_hits = 46, Reservation_fails = 390
L2_cache_bank[9]: Access = 7669, Miss = 990, Miss_rate = 0.129, Pending_hits = 50, Reservation_fails = 216
L2_cache_bank[10]: Access = 7717, Miss = 1020, Miss_rate = 0.132, Pending_hits = 56, Reservation_fails = 466
L2_cache_bank[11]: Access = 7777, Miss = 936, Miss_rate = 0.120, Pending_hits = 55, Reservation_fails = 309
L2_total_cache_accesses = 91991
L2_total_cache_misses = 11767
L2_total_cache_miss_rate = 0.1279
L2_total_cache_pending_hits = 633
L2_total_cache_reservation_fails = 6035
L2_total_cache_breakdown:
	L2_cache_stats_breakdown[GLOBAL_ACC_R][HIT] = 3941
	L2_cache_stats_breakdown[GLOBAL_ACC_R][HIT_RESERVED] = 7
	L2_cache_stats_breakdown[GLOBAL_ACC_R][MISS] = 129
	L2_cache_stats_breakdown[GLOBAL_ACC_R][RESERVATION_FAIL] = 365
	L2_cache_stats_breakdown[LOCAL_ACC_R][HIT] = 5786
	L2_cache_stats_breakdown[LOCAL_ACC_R][HIT_RESERVED] = 47
	L2_cache_stats_breakdown[LOCAL_ACC_R][MISS] = 441
	L2_cache_stats_breakdown[CONST_ACC_R][HIT] = 24
	L2_cache_stats_breakdown[CONST_ACC_R][HIT_RESERVED] = 4
	L2_cache_stats_breakdown[CONST_ACC_R][MISS] = 2
	L2_cache_stats_breakdown[CONST_ACC_R][RESERVATION_FAIL] = 271
	L2_cache_stats_breakdown[GLOBAL_ACC_W][HIT] = 5693
	L2_cache_stats_breakdown[GLOBAL_ACC_W][HIT_RESERVED] = 451
	L2_cache_stats_breakdown[GLOBAL_ACC_W][MISS] = 2048
	L2_cache_stats_breakdown[GLOBAL_ACC_W][RESERVATION_FAIL] = 106
	L2_cache_stats_breakdown[LOCAL_ACC_W][HIT] = 35138
	L2_cache_stats_breakdown[LOCAL_ACC_W][HIT_RESERVED] = 8
	L2_cache_stats_breakdown[LOCAL_ACC_W][MISS] = 8175
	L2_cache_stats_breakdown[LOCAL_ACC_W][RESERVATION_FAIL] = 802
	L2_cache_stats_breakdown[L1_WRBK_ACC][HIT] = 3095
	L2_cache_stats_breakdown[L1_WRBK_ACC][MISS] = 921
	L2_cache_stats_breakdown[INST_ACC_R][HIT] = 25914
	L2_cache_stats_breakdown[INST_ACC_R][HIT_RESERVED] = 116
	L2_cache_stats_breakdown[INST_ACC_R][MISS] = 51
	L2_cache_stats_breakdown[INST_ACC_R][RESERVATION_FAIL] = 4491
L2_cache_data_port_util = 0.122
L2_cache_fill_port_util = 0.019

icnt_total_pkts_mem_to_simt=233763
icnt_total_pkts_simt_to_mem=294563
LD_mem_lat_dist  0 0 0 0 0 0 0 0 0 0 0 0 0 0 0 0 0 0 0 0 0 0 0 0 0 0 0
ST_mem_lat_dist  0 0 0 0 0 0 0 0 0 0 0 0 0 0 0 0 0 0 0 0 0 0 0 0 0 0 0
----------------------------Interconnect-DETAILS--------------------------------
Class 0:
Packet latency average = 14.0535
	minimum = 6
	maximum = 923
Network latency average = 11.7119
	minimum = 6
	maximum = 732
Slowest packet = 773
Flit latency average = 10.6065
	minimum = 6
	maximum = 728
Slowest flit = 3361
Fragmentation average = 0.100113
	minimum = 0
	maximum = 633
Injected packet rate average = 0.031905
	minimum = 0.0275472 (at node 8)
	maximum = 0.0382789 (at node 22)
Accepted packet rate average = 0.031905
	minimum = 0.0263123 (at node 8)
	maximum = 0.039825 (at node 22)
Injected flit rate average = 0.0936636
	minimum = 0.0793245 (at node 19)
	maximum = 0.109045 (at node 22)
Accepted flit rate average= 0.0936636
	minimum = 0.0697464 (at node 0)
	maximum = 0.120566 (at node 22)
Injected packet length average = 2.9357
Accepted packet length average = 2.9357
Total in-flight flits = 0 (0 measured)
====== Overall Traffic Statistics ======
====== Traffic class 0 ======
Packet latency average = 14.0535 (1 samples)
	minimum = 6 (1 samples)
	maximum = 923 (1 samples)
Network latency average = 11.7119 (1 samples)
	minimum = 6 (1 samples)
	maximum = 732 (1 samples)
Flit latency average = 10.6065 (1 samples)
	minimum = 6 (1 samples)
	maximum = 728 (1 samples)
Fragmentation average = 0.100113 (1 samples)
	minimum = 0 (1 samples)
	maximum = 633 (1 samples)
Injected packet rate average = 0.031905 (1 samples)
	minimum = 0.0275472 (1 samples)
	maximum = 0.0382789 (1 samples)
Accepted packet rate average = 0.031905 (1 samples)
	minimum = 0.0263123 (1 samples)
	maximum = 0.039825 (1 samples)
Injected flit rate average = 0.0936636 (1 samples)
	minimum = 0.0793245 (1 samples)
	maximum = 0.109045 (1 samples)
Accepted flit rate average = 0.0936636 (1 samples)
	minimum = 0.0697464 (1 samples)
	maximum = 0.120566 (1 samples)
Injected packet size average = 2.9357 (1 samples)
Accepted packet size average = 2.9357 (1 samples)
Hops average = 1 (1 samples)
----------------------------END-of-Interconnect-DETAILS-------------------------


gpgpu_simulation_time = 0 days, 0 hrs, 15 min, 52 sec (952 sec)
gpgpu_simulation_rate = 65843 (inst/sec)
gpgpu_simulation_rate = 219 (cycle/sec)
GPGPU-Sim: synchronize waiting for inactive GPU simulation
GPGPU-Sim API: Stream Manager State
GPGPU-Sim: detected inactive GPU simulation thread

checksum=75ef40cb5b8e
Kernel Time: 951576.312500 
