

        *** GPGPU-Sim Simulator Version 3.2.2  [build 0] ***


GPGPU-Sim PTX: simulation mode 0 (can change with PTX_SIM_MODE_FUNC environment variable:
               1=functional simulation only, 0=detailed performance simulator)
GPGPU-Sim: Configuration options:

-network_mode                           1 # Interconnection network mode
-inter_config_file   config_fermi_islip.icnt # Interconnection network config file
-gpgpu_ptx_use_cuobjdump                    1 # Use cuobjdump to extract ptx and sass from binaries
-gpgpu_experimental_lib_support                    0 # Try to extract code from cuda libraries [Broken because of unknown cudaGetExportTable]
-gpgpu_ptx_convert_to_ptxplus                    0 # Convert SASS (native ISA) to ptxplus and run ptxplus
-gpgpu_ptx_force_max_capability                   20 # Force maximum compute capability
-gpgpu_ptx_inst_debug_to_file                    0 # Dump executed instructions' debug information to file
-gpgpu_ptx_inst_debug_file       inst_debug.txt # Executed instructions' debug output file
-gpgpu_ptx_inst_debug_thread_uid                    1 # Thread UID for executed instructions' debug output
-gpgpu_simd_model                       1 # 1 = post-dominator
-gpgpu_shader_core_pipeline          1536:256:32 # shader core pipeline config, i.e., {<nthread>:<warpsize>}
-gpgpu_tex_cache:l1  4:128:24,L:R:m:N:L,F:128:4,128:2 # per-shader L1 texture cache  (READ-ONLY) config  {<nsets>:<bsize>:<assoc>,<rep>:<wr>:<alloc>:<wr_alloc>,<mshr>:<N>:<merge>,<mq>:<rf>}
-gpgpu_const_cache:l1 64:64:2,L:R:f:N:L,A:2:32,4 # per-shader L1 constant memory cache  (READ-ONLY) config  {<nsets>:<bsize>:<assoc>,<rep>:<wr>:<alloc>:<wr_alloc>,<mshr>:<N>:<merge>,<mq>} 
-gpgpu_cache:il1     4:128:4,L:R:f:N:L,A:2:32,4 # shader L1 instruction cache config  {<nsets>:<bsize>:<assoc>,<rep>:<wr>:<alloc>:<wr_alloc>,<mshr>:<N>:<merge>,<mq>} 
-gpgpu_cache:dl1     32:128:4,L:L:m:N:H,A:32:8,8 # per-shader L1 data cache config  {<nsets>:<bsize>:<assoc>,<rep>:<wr>:<alloc>:<wr_alloc>,<mshr>:<N>:<merge>,<mq> | none}
-gpgpu_cache:dl1PrefL1                 none # per-shader L1 data cache config  {<nsets>:<bsize>:<assoc>,<rep>:<wr>:<alloc>:<wr_alloc>,<mshr>:<N>:<merge>,<mq> | none}
-gpgpu_cache:dl1PreShared                 none # per-shader L1 data cache config  {<nsets>:<bsize>:<assoc>,<rep>:<wr>:<alloc>:<wr_alloc>,<mshr>:<N>:<merge>,<mq> | none}
-gmem_skip_L1D                          0 # global memory access skip L1D cache (implements -Xptxas -dlcm=cg, default=no skip)
-gpgpu_perfect_mem                      0 # enable perfect memory mode (no cache miss)
-n_regfile_gating_group                    4 # group of lanes that should be read/written together)
-gpgpu_clock_gated_reg_file                    0 # enable clock gated reg file for power calculations
-gpgpu_clock_gated_lanes                    0 # enable clock gated lanes for power calculations
-gpgpu_shader_registers                32768 # Number of registers per shader core. Limits number of concurrent CTAs. (default 8192)
-gpgpu_shader_cta                       8 # Maximum number of concurrent CTAs in shader (default 8)
-gpgpu_num_cta_barriers                   16 # Maximum number of named barriers per CTA (default 16)
-gpgpu_n_clusters                      15 # number of processing clusters
-gpgpu_n_cores_per_cluster                    1 # number of simd cores per cluster
-gpgpu_n_cluster_ejection_buffer_size                    8 # number of packets in ejection buffer
-gpgpu_n_ldst_response_buffer_size                    2 # number of response packets in ld/st unit ejection buffer
-gpgpu_shmem_size                   16384 # Size of shared memory per shader core (default 16kB)
-gpgpu_shmem_size                   49152 # Size of shared memory per shader core (default 16kB)
-gpgpu_shmem_size_PrefL1                16384 # Size of shared memory per shader core (default 16kB)
-gpgpu_shmem_size_PrefShared                16384 # Size of shared memory per shader core (default 16kB)
-gpgpu_shmem_num_banks                   32 # Number of banks in the shared memory in each shader core (default 16)
-gpgpu_shmem_limited_broadcast                    0 # Limit shared memory to do one broadcast per cycle (default on)
-gpgpu_shmem_warp_parts                    1 # Number of portions a warp is divided into for shared memory bank conflict check 
-gpgpu_warpdistro_shader                   -1 # Specify which shader core to collect the warp size distribution from
-gpgpu_warp_issue_shader                    0 # Specify which shader core to collect the warp issue distribution from
-gpgpu_local_mem_map                    1 # Mapping from local memory space address to simulated GPU physical address space (default = enabled)
-gpgpu_num_reg_banks                   16 # Number of register banks (default = 8)
-gpgpu_reg_bank_use_warp_id                    0 # Use warp ID in mapping registers to banks (default = off)
-gpgpu_operand_collector_num_units_sp                    6 # number of collector units (default = 4)
-gpgpu_operand_collector_num_units_sfu                    8 # number of collector units (default = 4)
-gpgpu_operand_collector_num_units_mem                    2 # number of collector units (default = 2)
-gpgpu_operand_collector_num_units_gen                    0 # number of collector units (default = 0)
-gpgpu_operand_collector_num_in_ports_sp                    2 # number of collector unit in ports (default = 1)
-gpgpu_operand_collector_num_in_ports_sfu                    1 # number of collector unit in ports (default = 1)
-gpgpu_operand_collector_num_in_ports_mem                    1 # number of collector unit in ports (default = 1)
-gpgpu_operand_collector_num_in_ports_gen                    0 # number of collector unit in ports (default = 0)
-gpgpu_operand_collector_num_out_ports_sp                    2 # number of collector unit in ports (default = 1)
-gpgpu_operand_collector_num_out_ports_sfu                    1 # number of collector unit in ports (default = 1)
-gpgpu_operand_collector_num_out_ports_mem                    1 # number of collector unit in ports (default = 1)
-gpgpu_operand_collector_num_out_ports_gen                    0 # number of collector unit in ports (default = 0)
-gpgpu_coalesce_arch                   13 # Coalescing arch (default = 13, anything else is off for now)
-gpgpu_num_sched_per_core                    1 # Number of warp schedulers per core
-gpgpu_max_insn_issue_per_warp                    1 # Max number of instructions that can be issued per warp in one cycle by scheduler
-gpgpu_simt_core_sim_order                    1 # Select the simulation order of cores in a cluster (0=Fix, 1=Round-Robin)
-gpgpu_pipeline_widths        2,1,1,2,1,1,2 # Pipeline widths ID_OC_SP,ID_OC_SFU,ID_OC_MEM,OC_EX_SP,OC_EX_SFU,OC_EX_MEM,EX_WB
-gpgpu_num_sp_units                     2 # Number of SP units (default=1)
-gpgpu_num_sfu_units                    1 # Number of SF units (default=1)
-gpgpu_num_mem_units                    1 # Number if ldst units (default=1) WARNING: not hooked up to anything
-gpgpu_scheduler                      gto # Scheduler configuration: < lrr | gto | two_level_active > If two_level_active:<num_active_warps>:<inner_prioritization>:<outer_prioritization>For complete list of prioritization values see shader.h enum scheduler_prioritization_typeDefault: gto
-gpgpu_dram_scheduler                    1 # 0 = fifo, 1 = FR-FCFS (defaul)
-gpgpu_dram_partition_queues              8:8:8:8 # i2$:$2d:d2$:$2i
-l2_ideal                               0 # Use a ideal L2 cache that always hit
-gpgpu_cache:dl2     64:128:8,L:B:m:W:L,A:32:4,4:0,32 # unified banked L2 data cache config  {<nsets>:<bsize>:<assoc>,<rep>:<wr>:<alloc>:<wr_alloc>,<mshr>:<N>:<merge>,<mq>}
-gpgpu_cache:dl2_texture_only                    0 # L2 cache used for texture only
-gpgpu_n_mem                            6 # number of memory modules (e.g. memory controllers) in gpu
-gpgpu_n_sub_partition_per_mchannel                    2 # number of memory subpartition in each memory module
-gpgpu_n_mem_per_ctrlr                    2 # number of memory chips per memory controller
-gpgpu_memlatency_stat                   14 # track and display latency statistics 0x2 enables MC, 0x4 enables queue logs
-gpgpu_frfcfs_dram_sched_queue_size                   16 # 0 = unlimited (default); # entries per chip
-gpgpu_dram_return_queue_size                  116 # 0 = unlimited (default); # entries per chip
-gpgpu_dram_buswidth                    4 # default = 4 bytes (8 bytes per cycle at DDR)
-gpgpu_dram_burst_length                    8 # Burst length of each DRAM request (default = 4 data bus cycle)
-dram_data_command_freq_ratio                    4 # Frequency ratio between DRAM data bus and command bus (default = 2 times, i.e. DDR)
-gpgpu_dram_timing_opt nbk=16:CCD=2:RRD=6:RCD=12:RAS=28:RP=12:RC=40: CL=12:WL=4:CDLR=5:WR=12:nbkgrp=4:CCDL=3:RTPL=2 # DRAM timing parameters = {nbk:tCCD:tRRD:tRCD:tRAS:tRP:tRC:CL:WL:tCDLR:tWR:nbkgrp:tCCDL:tRTPL}
-rop_latency                          120 # ROP queue latency (default 85)
-dram_latency                         100 # DRAM latency (default 30)
-gpgpu_mem_addr_mapping dramid@8;00000000.00000000.00000000.00000000.0000RRRR.RRRRRRRR.BBBCCCCB.CCSSSSSS # mapping memory address to dram model {dramid@<start bit>;<memory address map>}
-gpgpu_mem_addr_test                    0 # run sweep test to check address mapping for aliased address
-gpgpu_mem_address_mask                    1 # 0 = old addressing mask, 1 = new addressing mask, 2 = new add. mask + flipped bank sel and chip sel bits
-gpuwattch_xml_file  gpuwattch_gtx480.xml # GPUWattch XML file
-power_simulation_enabled                    1 # Turn on power simulator (1=On, 0=Off)
-power_per_cycle_dump                    0 # Dump detailed power output each cycle
-power_trace_enabled                    0 # produce a file for the power trace (1=On, 0=Off)
-power_trace_zlevel                     6 # Compression level of the power trace output log (0=no comp, 9=highest)
-steady_power_levels_enabled                    0 # produce a file for the steady power levels (1=On, 0=Off)
-steady_state_definition                  8:4 # allowed deviation:number of samples
-gpgpu_max_cycle                        0 # terminates gpu simulation early (0 = no limit)
-gpgpu_max_insn                         0 # terminates gpu simulation early (0 = no limit)
-gpgpu_max_cta                          0 # terminates gpu simulation early (0 = no limit)
-gpgpu_runtime_stat                   500 # display runtime statistics such as dram utilization {<freq>:<flag>}
-liveness_message_freq                    1 # Minimum number of seconds between simulation liveness messages (0 = always print)
-gpgpu_flush_l1_cache                    0 # Flush L1 cache at the end of each kernel call
-gpgpu_flush_l2_cache                    0 # Flush L2 cache at the end of each kernel call
-gpgpu_deadlock_detect                    1 # Stop the simulation at deadlock (1=on (default), 0=off)
-gpgpu_ptx_instruction_classification                    0 # if enabled will classify ptx instruction types per kernel (Max 255 kernels now)
-gpgpu_ptx_sim_mode                     0 # Select between Performance (default) or Functional simulation (1)
-gpgpu_clock_domains 700.0:700.0:700.0:924.0 # Clock Domain Frequencies in MhZ {<Core Clock>:<ICNT Clock>:<L2 Clock>:<DRAM Clock>}
-gpgpu_max_concurrent_kernel                    8 # maximum kernels that can run concurrently on GPU
-gpgpu_cflog_interval                    0 # Interval between each snapshot in control flow logger
-visualizer_enabled                     0 # Turn on visualizer output (1=On, 0=Off)
-visualizer_outputfile                 NULL # Specifies the output log file for visualizer
-visualizer_zlevel                      6 # Compression level of the visualizer output log (0=no comp, 9=highest)
-trace_enabled                          0 # Turn on traces
-trace_components                    none # comma seperated list of traces to enable. Complete list found in trace_streams.tup. Default none
-trace_sampling_core                    0 # The core which is printed using CORE_DPRINTF. Default 0
-trace_sampling_memory_partition                   -1 # The memory partition which is printed using MEMPART_DPRINTF. Default -1 (i.e. all)
-enable_ptx_file_line_stats                    1 # Turn on PTX source line statistic profiling. (1 = On)
-ptx_line_stats_filename gpgpu_inst_stats.txt # Output file for PTX source line statistics.
-save_embedded_ptx                      0 # saves ptx files embedded in binary as <n>.ptx
-keep                                   0 # keep intermediate files created by GPGPU-Sim when interfacing with external programs
-gpgpu_ptx_save_converted_ptxplus                    0 # Saved converted ptxplus to a file
-ptx_opcode_latency_int         4,13,4,5,145 # Opcode latencies for integers <ADD,MAX,MUL,MAD,DIV>Default 1,1,19,25,145
-ptx_opcode_latency_fp          4,13,4,5,39 # Opcode latencies for single precision floating points <ADD,MAX,MUL,MAD,DIV>Default 1,1,1,1,30
-ptx_opcode_latency_dp         8,19,8,8,330 # Opcode latencies for double precision floating points <ADD,MAX,MUL,MAD,DIV>Default 8,8,8,8,335
-ptx_opcode_initiation_int            1,2,2,1,8 # Opcode initiation intervals for integers <ADD,MAX,MUL,MAD,DIV>Default 1,1,4,4,32
-ptx_opcode_initiation_fp            1,2,1,1,4 # Opcode initiation intervals for single precision floating points <ADD,MAX,MUL,MAD,DIV>Default 1,1,1,1,5
-ptx_opcode_initiation_dp         8,16,8,8,130 # Opcode initiation intervals for double precision floating points <ADD,MAX,MUL,MAD,DIV>Default 8,8,8,8,130
ESHA: SIMD Width was found to be : 32
DRAM Timing Options:
nbk                                    16 # number of banks
CCD                                     2 # column to column delay
RRD                                     6 # minimal delay between activation of rows in different banks
RCD                                    12 # row to column delay
RAS                                    28 # time needed to activate row
RP                                     12 # time needed to precharge (deactivate) row
RC                                     40 # row cycle time
CDLR                                    5 # switching from write to read (changes tWTR)
WR                                     12 # last data-in to row precharge
CL                                     12 # CAS latency
WL                                      4 # Write latency
nbkgrp                                  4 # number of bank groups
CCDL                                    3 # column to column delay between accesses to different bank groups
RTPL                                    2 # read to precharge delay between accesses to different bank groups
Total number of memory sub partition = 12
addr_dec_mask[CHIP]  = 0000000000000000 	high:64 low:0
addr_dec_mask[BK]    = 000000000000e100 	high:16 low:8
addr_dec_mask[ROW]   = 000000000fff0000 	high:28 low:16
addr_dec_mask[COL]   = 0000000000001eff 	high:13 low:0
addr_dec_mask[BURST] = 000000000000003f 	high:6 low:0
sub_partition_id_mask = 0000000000000100
GPGPU-Sim uArch: clock freqs: 700000000.000000:700000000.000000:700000000.000000:924000000.000000
GPGPU-Sim uArch: clock periods: 0.00000000142857142857:0.00000000142857142857:0.00000000142857142857:0.00000000108225108225
ESHA_CHANGED: in shader config simd is  32 
*** Initializing Memory Statistics ***
GPGPU-Sim uArch: interconnect node map (shaderID+MemID to icntID)
GPGPU-Sim uArch: Memory nodes ID start from index: 15
GPGPU-Sim uArch:    0   1   2   3   4
GPGPU-Sim uArch:    5   6   7   8   9
GPGPU-Sim uArch:   10  11  12  13  14
GPGPU-Sim uArch:   15  16  17  18  19
GPGPU-Sim uArch:   20  21  22  23  24
GPGPU-Sim uArch:   25  26
GPGPU-Sim uArch: interconnect node reverse map (icntID to shaderID+MemID)
GPGPU-Sim uArch: Memory nodes start from ID: 15
GPGPU-Sim uArch:    0   1   2   3   4
GPGPU-Sim uArch:    5   6   7   8   9
GPGPU-Sim uArch:   10  11  12  13  14
GPGPU-Sim uArch:   15  16  17  18  19
GPGPU-Sim uArch:   20  21  22  23  24
GPGPU-Sim uArch:   25  26
62f7c84b053e7125f7dedfb6f8cd2ad7  /home/kishore/project_source/gpu_class_proj/gpgpusim-benchmarks-master/bin/release/RAY
GPGPU-Sim uArch: performance model initialization complete.
GPGPU-Sim PTX: __cudaRegisterFatBinary, fat_cubin_handle = 1, filename=rayTracing.cu
self exe links to: /home/kishore/project_source/gpu_class_proj/gpgpusim-benchmarks-master/bin/release/RAY
Running md5sum using "md5sum /home/kishore/project_source/gpu_class_proj/gpgpusim-benchmarks-master/bin/release/RAY "
Running cuobjdump using "$CUDA_INSTALL_PATH/bin/cuobjdump -ptx -elf -sass /home/kishore/project_source/gpu_class_proj/gpgpusim-benchmarks-master/bin/release/RAY > _cuobjdump_complete_output_m1mOHN"
Parsing file _cuobjdump_complete_output_m1mOHN
######### cuobjdump parser ########
## Adding new section PTX
Adding ptx filename: _cuobjdump_1.ptx
Adding arch: sm_10
Adding identifier: rayTracing.cu
## Adding new section ELF
Adding arch: sm_10
Adding identifier: rayTracing.cu
## Adding new section ELF
Adding arch: sm_20
Adding identifier: rayTracing.cu
## Adding new section PTX
Adding ptx filename: _cuobjdump_2.ptx
Adding arch: sm_20
Adding identifier: rayTracing.cu
Done parsing!!!
GPGPU-Sim PTX: __cudaRegisterFunction _Z6renderPjP4Nodejjff : hostFun 0x0x40a280, fat_cubin_handle = 1
GPGPU-Sim PTX: allocating stack frame region for .param "__cudaretf__Zmi6float3S_" from 0x0 to 0xc
GPGPU-Sim PTX: allocating stack frame region for .param "__cudaparmf1__Zmi6float3S_" from 0xc to 0x18
GPGPU-Sim PTX: allocating stack frame region for .param "__cudaparmf2__Zmi6float3S_" from 0x18 to 0x24
GPGPU-Sim PTX: allocating stack frame region for .param "__cudaretf__Z9normalize6float3" from 0x0 to 0xc
GPGPU-Sim PTX: allocating stack frame region for .param "__cudaparmf1__Z9normalize6float3" from 0xc to 0x18
GPGPU-Sim PTX: allocating stack frame region for .param "__cudaretf__Z18intersectionSphere5Rayon6float3f" from 0x0 to 0x4
GPGPU-Sim PTX: allocating stack frame region for .param "__cudaparmf1__Z18intersectionSphere5Rayon6float3f" from 0x4 to 0x1c
GPGPU-Sim PTX: allocating stack frame region for .param "__cudaparmf2__Z18intersectionSphere5Rayon6float3f" from 0x1c to 0x28
GPGPU-Sim PTX: allocating stack frame region for .param "__cudaparmf3__Z18intersectionSphere5Rayon6float3f" from 0x28 to 0x2c
GPGPU-Sim PTX: allocating stack frame region for .param "__cudaretf__Z16intersectionPlan5Rayon6float3S0_" from 0x0 to 0x4
GPGPU-Sim PTX: allocating stack frame region for .param "__cudaparmf1__Z16intersectionPlan5Rayon6float3S0_" from 0x4 to 0x1c
GPGPU-Sim PTX: allocating stack frame region for .param "__cudaparmf2__Z16intersectionPlan5Rayon6float3S0_" from 0x1c to 0x28
GPGPU-Sim PTX: allocating stack frame region for .param "__cudaparmf3__Z16intersectionPlan5Rayon6float3S0_" from 0x28 to 0x34
GPGPU-Sim PTX: allocating stack frame region for .param "__cudaretf__Z10getNormale6float3S_" from 0x0 to 0xc
GPGPU-Sim PTX: allocating stack frame region for .param "__cudaparmf1__Z10getNormale6float3S_" from 0xc to 0x18
GPGPU-Sim PTX: allocating stack frame region for .param "__cudaparmf2__Z10getNormale6float3S_" from 0x18 to 0x24
GPGPU-Sim PTX: allocating stack frame region for .param "__cudaretf__Z11getNormaleP6float3" from 0x0 to 0xc
GPGPU-Sim PTX: allocating stack frame region for .param "__cudaparmf1__Z11getNormaleP6float3" from 0xc to 0x18
GPGPU-Sim PTX: allocating stack frame region for .param "__cudaretf__Z14rgbaFloatToInt6float4" from 0x0 to 0x4
GPGPU-Sim PTX: allocating stack frame region for .param "__cudaparmf1__Z14rgbaFloatToInt6float4" from 0x4 to 0x14
GPGPU-Sim PTX: allocating stack frame region for .param "__cudaretf__Z12notShadowRayP4Node6float3S1_f" from 0x0 to 0x4
GPGPU-Sim PTX: allocating stack frame region for .param "__cudaparmf1__Z12notShadowRayP4Node6float3S1_f" from 0x4 to 0xc
GPGPU-Sim PTX: allocating stack frame region for .param "__cudaparmf2__Z12notShadowRayP4Node6float3S1_f" from 0xc to 0x18
GPGPU-Sim PTX: allocating stack frame region for .param "__cudaparmf3__Z12notShadowRayP4Node6float3S1_f" from 0x18 to 0x24
GPGPU-Sim PTX: allocating stack frame region for .param "__cudaparmf4__Z12notShadowRayP4Node6float3S1_f" from 0x24 to 0x28
GPGPU-Sim PTX: allocating stack frame region for .param "__cudaretf__Z15float2int_pow20f" from 0x0 to 0x4
GPGPU-Sim PTX: allocating stack frame region for .param "__cudaparmf1__Z15float2int_pow20f" from 0x4 to 0x8
GPGPU-Sim PTX: allocating stack frame region for .param "__cudaretf__Z15float2int_pow50f" from 0x0 to 0x4
GPGPU-Sim PTX: allocating stack frame region for .param "__cudaparmf1__Z15float2int_pow50f" from 0x4 to 0x8
GPGPU-Sim PTX: allocating stack frame region for .param "__cudaparmf1__ZN4dim3C1Ejjj" from 0x0 to 0x8
GPGPU-Sim PTX: allocating stack frame region for .param "__cudaparmf2__ZN4dim3C1Ejjj" from 0x8 to 0xc
GPGPU-Sim PTX: allocating stack frame region for .param "__cudaparmf3__ZN4dim3C1Ejjj" from 0xc to 0x10
GPGPU-Sim PTX: allocating stack frame region for .param "__cudaparmf4__ZN4dim3C1Ejjj" from 0x10 to 0x14
GPGPU-Sim PTX: instruction assembly for function '_Zmi6float3S_'...   done.
GPGPU-Sim PTX: finding reconvergence points for '_Zmi6float3S_'...
GPGPU-Sim PTX: Finding dominators for '_Zmi6float3S_'...
GPGPU-Sim PTX: Finding immediate dominators for '_Zmi6float3S_'...
GPGPU-Sim PTX: Finding postdominators for '_Zmi6float3S_'...
GPGPU-Sim PTX: Finding immediate postdominators for '_Zmi6float3S_'...
GPGPU-Sim PTX: pre-decoding instructions for '_Zmi6float3S_'...
GPGPU-Sim PTX: reconvergence points for _Zmi6float3S_...
GPGPU-Sim PTX: ... end of reconvergence points for _Zmi6float3S_
GPGPU-Sim PTX: ... done pre-decoding instructions for '_Zmi6float3S_'.
GPGPU-Sim PTX: instruction assembly for function '_Z9normalize6float3'...   done.
GPGPU-Sim PTX: finding reconvergence points for '_Z9normalize6float3'...
GPGPU-Sim PTX: Finding dominators for '_Z9normalize6float3'...
GPGPU-Sim PTX: Finding immediate dominators for '_Z9normalize6float3'...
GPGPU-Sim PTX: Finding postdominators for '_Z9normalize6float3'...
GPGPU-Sim PTX: Finding immediate postdominators for '_Z9normalize6float3'...
GPGPU-Sim PTX: pre-decoding instructions for '_Z9normalize6float3'...
GPGPU-Sim PTX: reconvergence points for _Z9normalize6float3...
GPGPU-Sim PTX: ... end of reconvergence points for _Z9normalize6float3
GPGPU-Sim PTX: ... done pre-decoding instructions for '_Z9normalize6float3'.
GPGPU-Sim PTX: instruction assembly for function '_Z18intersectionSphere5Rayon6float3f'...   done.
GPGPU-Sim PTX: finding reconvergence points for '_Z18intersectionSphere5Rayon6float3f'...
GPGPU-Sim PTX: Finding dominators for '_Z18intersectionSphere5Rayon6float3f'...
GPGPU-Sim PTX: Finding immediate dominators for '_Z18intersectionSphere5Rayon6float3f'...
GPGPU-Sim PTX: Finding postdominators for '_Z18intersectionSphere5Rayon6float3f'...
GPGPU-Sim PTX: Finding immediate postdominators for '_Z18intersectionSphere5Rayon6float3f'...
GPGPU-Sim PTX: pre-decoding instructions for '_Z18intersectionSphere5Rayon6float3f'...
GPGPU-Sim PTX: reconvergence points for _Z18intersectionSphere5Rayon6float3f...
GPGPU-Sim PTX:  1 (potential) branch divergence @  PC=0x250 (_1.ptx:173) @%p2 bra $Lt_2_3074;
GPGPU-Sim PTX:    immediate post dominator      @  PC=0x2c0 (_1.ptx:193) mov.f32 %f39, %f32;
GPGPU-Sim PTX:  2 (potential) branch divergence @  PC=0x260 (_1.ptx:175) bra.uni $Lt_2_2818;
GPGPU-Sim PTX:    immediate post dominator      @  PC=0x2c0 (_1.ptx:193) mov.f32 %f39, %f32;
GPGPU-Sim PTX:  3 (potential) branch divergence @  PC=0x280 (_1.ptx:180) @!%p3 bra $Lt_2_3586;
GPGPU-Sim PTX:    immediate post dominator      @  PC=0x2c0 (_1.ptx:193) mov.f32 %f39, %f32;
GPGPU-Sim PTX:  4 (potential) branch divergence @  PC=0x290 (_1.ptx:182) bra.uni $Lt_2_3330;
GPGPU-Sim PTX:    immediate post dominator      @  PC=0x2c0 (_1.ptx:193) mov.f32 %f39, %f32;
GPGPU-Sim PTX: ... end of reconvergence points for _Z18intersectionSphere5Rayon6float3f
GPGPU-Sim PTX: ... done pre-decoding instructions for '_Z18intersectionSphere5Rayon6float3f'.
GPGPU-Sim PTX: instruction assembly for function '_Z16intersectionPlan5Rayon6float3S0_'...   done.
GPGPU-Sim PTX: finding reconvergence points for '_Z16intersectionPlan5Rayon6float3S0_'...
GPGPU-Sim PTX: Finding dominators for '_Z16intersectionPlan5Rayon6float3S0_'...
GPGPU-Sim PTX: Finding immediate dominators for '_Z16intersectionPlan5Rayon6float3S0_'...
GPGPU-Sim PTX: Finding postdominators for '_Z16intersectionPlan5Rayon6float3S0_'...
GPGPU-Sim PTX: Finding immediate postdominators for '_Z16intersectionPlan5Rayon6float3S0_'...
GPGPU-Sim PTX: pre-decoding instructions for '_Z16intersectionPlan5Rayon6float3S0_'...
GPGPU-Sim PTX: reconvergence points for _Z16intersectionPlan5Rayon6float3S0_...
GPGPU-Sim PTX:  1 (potential) branch divergence @  PC=0x320 (_1.ptx:214) @!%p1 bra $Lt_3_2050;
GPGPU-Sim PTX:    immediate post dominator      @  PC=0x368 (_1.ptx:227) mov.f32 %f14, %f9;
GPGPU-Sim PTX:  2 (potential) branch divergence @  PC=0x330 (_1.ptx:216) bra.uni $Lt_3_1794;
GPGPU-Sim PTX:    immediate post dominator      @  PC=0x368 (_1.ptx:227) mov.f32 %f14, %f9;
GPGPU-Sim PTX: ... end of reconvergence points for _Z16intersectionPlan5Rayon6float3S0_
GPGPU-Sim PTX: ... done pre-decoding instructions for '_Z16intersectionPlan5Rayon6float3S0_'.
GPGPU-Sim PTX: instruction assembly for function '_Z10getNormale6float3S_'...   done.
GPGPU-Sim PTX: finding reconvergence points for '_Z10getNormale6float3S_'...
GPGPU-Sim PTX: Finding dominators for '_Z10getNormale6float3S_'...
GPGPU-Sim PTX: Finding immediate dominators for '_Z10getNormale6float3S_'...
GPGPU-Sim PTX: Finding postdominators for '_Z10getNormale6float3S_'...
GPGPU-Sim PTX: Finding immediate postdominators for '_Z10getNormale6float3S_'...
GPGPU-Sim PTX: pre-decoding instructions for '_Z10getNormale6float3S_'...
GPGPU-Sim PTX: reconvergence points for _Z10getNormale6float3S_...
GPGPU-Sim PTX: ... end of reconvergence points for _Z10getNormale6float3S_
GPGPU-Sim PTX: ... done pre-decoding instructions for '_Z10getNormale6float3S_'.
GPGPU-Sim PTX: instruction assembly for function '_Z11getNormaleP6float3'...   done.
GPGPU-Sim PTX: finding reconvergence points for '_Z11getNormaleP6float3'...
GPGPU-Sim PTX: Finding dominators for '_Z11getNormaleP6float3'...
GPGPU-Sim PTX: Finding immediate dominators for '_Z11getNormaleP6float3'...
GPGPU-Sim PTX: Finding postdominators for '_Z11getNormaleP6float3'...
GPGPU-Sim PTX: Finding immediate postdominators for '_Z11getNormaleP6float3'...
GPGPU-Sim PTX: pre-decoding instructions for '_Z11getNormaleP6float3'...
GPGPU-Sim PTX: reconvergence points for _Z11getNormaleP6float3...
GPGPU-Sim PTX: ... end of reconvergence points for _Z11getNormaleP6float3
GPGPU-Sim PTX: ... done pre-decoding instructions for '_Z11getNormaleP6float3'.
GPGPU-Sim PTX: instruction assembly for function '_Z14rgbaFloatToInt6float4'...   done.
GPGPU-Sim PTX: finding reconvergence points for '_Z14rgbaFloatToInt6float4'...
GPGPU-Sim PTX: Finding dominators for '_Z14rgbaFloatToInt6float4'...
GPGPU-Sim PTX: Finding immediate dominators for '_Z14rgbaFloatToInt6float4'...
GPGPU-Sim PTX: Finding postdominators for '_Z14rgbaFloatToInt6float4'...
GPGPU-Sim PTX: Finding immediate postdominators for '_Z14rgbaFloatToInt6float4'...
GPGPU-Sim PTX: pre-decoding instructions for '_Z14rgbaFloatToInt6float4'...
GPGPU-Sim PTX: reconvergence points for _Z14rgbaFloatToInt6float4...
GPGPU-Sim PTX: ... end of reconvergence points for _Z14rgbaFloatToInt6float4
GPGPU-Sim PTX: ... done pre-decoding instructions for '_Z14rgbaFloatToInt6float4'.
GPGPU-Sim PTX: allocating global region for "cnode" from 0x100 to 0x1a0 (global memory space)
GPGPU-Sim PTX: instruction assembly for function '_Z12notShadowRayP4Node6float3S1_f'...   done.
GPGPU-Sim PTX: finding reconvergence points for '_Z12notShadowRayP4Node6float3S1_f'...
GPGPU-Sim PTX: Finding dominators for '_Z12notShadowRayP4Node6float3S1_f'...
GPGPU-Sim PTX: Finding immediate dominators for '_Z12notShadowRayP4Node6float3S1_f'...
GPGPU-Sim PTX: Finding postdominators for '_Z12notShadowRayP4Node6float3S1_f'...
GPGPU-Sim PTX: Finding immediate postdominators for '_Z12notShadowRayP4Node6float3S1_f'...
GPGPU-Sim PTX: pre-decoding instructions for '_Z12notShadowRayP4Node6float3S1_f'...
GPGPU-Sim PTX: reconvergence points for _Z12notShadowRayP4Node6float3S1_f...
GPGPU-Sim PTX:  1 (potential) branch divergence @  PC=0x638 (_1.ptx:364) @%p1 bra $Lt_7_8450;
GPGPU-Sim PTX:    immediate post dominator      @  PC=0x828 (_1.ptx:441) mov.f32 %f58, 0f00000000;    // 0
GPGPU-Sim PTX:  2 (potential) branch divergence @  PC=0x658 (_1.ptx:369) @!%p2 bra $Lt_7_8962;
GPGPU-Sim PTX:    immediate post dominator      @  PC=0x6b8 (_1.ptx:385) mov.f32 %f28, %f20;
GPGPU-Sim PTX:  3 (potential) branch divergence @  PC=0x668 (_1.ptx:371) bra.uni $Lt_7_8706;
GPGPU-Sim PTX:    immediate post dominator      @  PC=0x6b8 (_1.ptx:385) mov.f32 %f28, %f20;
GPGPU-Sim PTX:  4 (potential) branch divergence @  PC=0x6c0 (_1.ptx:386) bra.uni $Lt_7_8194;
GPGPU-Sim PTX:    immediate post dominator      @  PC=0x828 (_1.ptx:441) mov.f32 %f58, 0f00000000;    // 0
GPGPU-Sim PTX:  5 (potential) branch divergence @  PC=0x7b0 (_1.ptx:418) @%p5 bra $Lt_7_9474;
GPGPU-Sim PTX:    immediate post dominator      @  PC=0x820 (_1.ptx:438) mov.f32 %f28, %f51;
GPGPU-Sim PTX:  6 (potential) branch divergence @  PC=0x7c0 (_1.ptx:420) bra.uni $Lt_7_9730;
GPGPU-Sim PTX:    immediate post dominator      @  PC=0x820 (_1.ptx:438) mov.f32 %f28, %f51;
GPGPU-Sim PTX:  7 (potential) branch divergence @  PC=0x7e0 (_1.ptx:425) @!%p6 bra $Lt_7_9986;
GPGPU-Sim PTX:    immediate post dominator      @  PC=0x820 (_1.ptx:438) mov.f32 %f28, %f51;
GPGPU-Sim PTX:  8 (potential) branch divergence @  PC=0x7f0 (_1.ptx:427) bra.uni $Lt_7_9730;
GPGPU-Sim PTX:    immediate post dominator      @  PC=0x820 (_1.ptx:438) mov.f32 %f28, %f51;
GPGPU-Sim PTX:  9 (potential) branch divergence @  PC=0x838 (_1.ptx:443) @!%p7 bra $Lt_7_10242;
GPGPU-Sim PTX:    immediate post dominator      @  PC=0x8e8 (_1.ptx:468) add.s32 %r1, %r1, 1;
GPGPU-Sim PTX: 10 (potential) branch divergence @  PC=0x8d8 (_1.ptx:463) @!%p8 bra $Lt_7_10242;
GPGPU-Sim PTX:    immediate post dominator      @  PC=0x8e8 (_1.ptx:468) add.s32 %r1, %r1, 1;
GPGPU-Sim PTX: 11 (potential) branch divergence @  PC=0x908 (_1.ptx:472) @%p9 bra $Lt_7_10754;
GPGPU-Sim PTX:    immediate post dominator      @  PC=0x960 (_1.ptx:486) selp.s32 %r10, 1, 0, %p11;
GPGPU-Sim PTX: 12 (potential) branch divergence @  PC=0x930 (_1.ptx:477) @%p10 bra $L_7_7170;
GPGPU-Sim PTX:    immediate post dominator      @  PC=0x960 (_1.ptx:486) selp.s32 %r10, 1, 0, %p11;
GPGPU-Sim PTX: 13 (potential) branch divergence @  PC=0x938 (_1.ptx:478) bra.uni $L_7_7938;
GPGPU-Sim PTX:    immediate post dominator      @  PC=0x960 (_1.ptx:486) selp.s32 %r10, 1, 0, %p11;
GPGPU-Sim PTX: ... end of reconvergence points for _Z12notShadowRayP4Node6float3S1_f
GPGPU-Sim PTX: ... done pre-decoding instructions for '_Z12notShadowRayP4Node6float3S1_f'.
GPGPU-Sim PTX: instruction assembly for function '_Z15float2int_pow20f'...   done.
GPGPU-Sim PTX: finding reconvergence points for '_Z15float2int_pow20f'...
GPGPU-Sim PTX: Finding dominators for '_Z15float2int_pow20f'...
GPGPU-Sim PTX: Finding immediate dominators for '_Z15float2int_pow20f'...
GPGPU-Sim PTX: Finding postdominators for '_Z15float2int_pow20f'...
GPGPU-Sim PTX: Finding immediate postdominators for '_Z15float2int_pow20f'...
GPGPU-Sim PTX: pre-decoding instructions for '_Z15float2int_pow20f'...
GPGPU-Sim PTX: reconvergence points for _Z15float2int_pow20f...
GPGPU-Sim PTX: ... end of reconvergence points for _Z15float2int_pow20f
GPGPU-Sim PTX: ... done pre-decoding instructions for '_Z15float2int_pow20f'.
GPGPU-Sim PTX: instruction assembly for function '_Z15float2int_pow50f'...   done.
GPGPU-Sim PTX: finding reconvergence points for '_Z15float2int_pow50f'...
GPGPU-Sim PTX: Finding dominators for '_Z15float2int_pow50f'...
GPGPU-Sim PTX: Finding immediate dominators for '_Z15float2int_pow50f'...
GPGPU-Sim PTX: Finding postdominators for '_Z15float2int_pow50f'...
GPGPU-Sim PTX: Finding immediate postdominators for '_Z15float2int_pow50f'...
GPGPU-Sim PTX: pre-decoding instructions for '_Z15float2int_pow50f'...
GPGPU-Sim PTX: reconvergence points for _Z15float2int_pow50f...
GPGPU-Sim PTX: ... end of reconvergence points for _Z15float2int_pow50f
GPGPU-Sim PTX: ... done pre-decoding instructions for '_Z15float2int_pow50f'.
GPGPU-Sim PTX: allocating constant region for "MView" from 0x200 to 0x230 (global memory space) 1
GPGPU-Sim PTX: allocating stack frame region for .local "__cuda___cuda_local_var_36873_9_non_const_pile_32240" from 0x0 to 0x50
GPGPU-Sim PTX: instruction assembly for function '_Z6renderPjP4Nodejjff'...   done.
GPGPU-Sim PTX: finding reconvergence points for '_Z6renderPjP4Nodejjff'...
GPGPU-Sim PTX: Finding dominators for '_Z6renderPjP4Nodejjff'...
GPGPU-Sim PTX: Finding immediate dominators for '_Z6renderPjP4Nodejjff'...
GPGPU-Sim PTX: Finding postdominators for '_Z6renderPjP4Nodejjff'...
GPGPU-Sim PTX: Finding immediate postdominators for '_Z6renderPjP4Nodejjff'...
GPGPU-Sim PTX: pre-decoding instructions for '_Z6renderPjP4Nodejjff'...
GPGPU-Sim PTX: reconvergence points for _Z6renderPjP4Nodejjff...
GPGPU-Sim PTX:  1 (potential) branch divergence @  PC=0xdb0 (_1.ptx:663) @%p1 bra $Lt_10_44034;
GPGPU-Sim PTX:    immediate post dominator      @  PC=0x2370 (_1.ptx:1495) exit;
GPGPU-Sim PTX:  2 (potential) branch divergence @  PC=0x1028 (_1.ptx:751) @%p2 bra $Lt_10_45570;
GPGPU-Sim PTX:    immediate post dominator      @  PC=0x11b8 (_1.ptx:815) mov.f32 %f108, 0f00000000;   // 0
GPGPU-Sim PTX:  3 (potential) branch divergence @  PC=0x1048 (_1.ptx:756) @!%p3 bra $Lt_10_46082;
GPGPU-Sim PTX:    immediate post dominator      @  PC=0x1090 (_1.ptx:769) mov.f32 %f87, %f82;
GPGPU-Sim PTX:  4 (potential) branch divergence @  PC=0x1058 (_1.ptx:758) bra.uni $Lt_10_45826;
GPGPU-Sim PTX:    immediate post dominator      @  PC=0x1090 (_1.ptx:769) mov.f32 %f87, %f82;
GPGPU-Sim PTX:  5 (potential) branch divergence @  PC=0x1098 (_1.ptx:770) bra.uni $Lt_10_45314;
GPGPU-Sim PTX:    immediate post dominator      @  PC=0x11b8 (_1.ptx:815) mov.f32 %f108, 0f00000000;   // 0
GPGPU-Sim PTX:  6 (potential) branch divergence @  PC=0x1140 (_1.ptx:793) @%p6 bra $Lt_10_46594;
GPGPU-Sim PTX:    immediate post dominator      @  PC=0x11b0 (_1.ptx:813) mov.f32 %f87, %f101;
GPGPU-Sim PTX:  7 (potential) branch divergence @  PC=0x1150 (_1.ptx:795) bra.uni $Lt_10_46850;
GPGPU-Sim PTX:    immediate post dominator      @  PC=0x11b0 (_1.ptx:813) mov.f32 %f87, %f101;
GPGPU-Sim PTX:  8 (potential) branch divergence @  PC=0x1170 (_1.ptx:800) @!%p7 bra $Lt_10_47106;
GPGPU-Sim PTX:    immediate post dominator      @  PC=0x11b0 (_1.ptx:813) mov.f32 %f87, %f101;
GPGPU-Sim PTX:  9 (potential) branch divergence @  PC=0x1180 (_1.ptx:802) bra.uni $Lt_10_46850;
GPGPU-Sim PTX:    immediate post dominator      @  PC=0x11b0 (_1.ptx:813) mov.f32 %f87, %f101;
GPGPU-Sim PTX: 10 (potential) branch divergence @  PC=0x11f8 (_1.ptx:823) @%p8 bra $Lt_10_47362;
GPGPU-Sim PTX:    immediate post dominator      @  PC=0x1210 (_1.ptx:829) add.s32 %r25, %r25, 1;
GPGPU-Sim PTX: 11 (potential) branch divergence @  PC=0x1230 (_1.ptx:833) @%p9 bra $Lt_10_45058;
GPGPU-Sim PTX:    immediate post dominator      @  PC=0x1238 (_1.ptx:834) mov.f32 %f109, 0f00000000;   // 0
GPGPU-Sim PTX: 12 (potential) branch divergence @  PC=0x1280 (_1.ptx:843) @%p10 bra $Lt_10_48130;
GPGPU-Sim PTX:    immediate post dominator      @  PC=0x2140 (_1.ptx:1416) add.s32 %r23, %r23, 1;
GPGPU-Sim PTX: 13 (potential) branch divergence @  PC=0x1330 (_1.ptx:868) @%p11 bra $Lt_10_48898;
GPGPU-Sim PTX:    immediate post dominator      @  PC=0x13b8 (_1.ptx:888) sub.f32 %f136, %f21, %f119;
GPGPU-Sim PTX: 14 (potential) branch divergence @  PC=0x1350 (_1.ptx:873) bra.uni $Lt_10_48642;
GPGPU-Sim PTX:    immediate post dominator      @  PC=0x13b8 (_1.ptx:888) sub.f32 %f136, %f21, %f119;
GPGPU-Sim PTX: 15 (potential) branch divergence @  PC=0x1430 (_1.ptx:903) @!%p12 bra $Lt_10_49410;
GPGPU-Sim PTX:    immediate post dominator      @  PC=0x1470 (_1.ptx:915) mov.f32 %f153, 0f3d4ccccd;   // 0.05
GPGPU-Sim PTX: 16 (potential) branch divergence @  PC=0x1450 (_1.ptx:908) bra.uni $Lt_10_49154;
GPGPU-Sim PTX:    immediate post dominator      @  PC=0x1470 (_1.ptx:915) mov.f32 %f153, 0f3d4ccccd;   // 0.05
GPGPU-Sim PTX: 17 (potential) branch divergence @  PC=0x1578 (_1.ptx:949) @!%p13 bra $Lt_10_58114;
GPGPU-Sim PTX:    immediate post dominator      @  PC=0x2080 (_1.ptx:1388) add.f32 %f399, %f126, %f126;
GPGPU-Sim PTX: 18 (potential) branch divergence @  PC=0x15c0 (_1.ptx:961) @%p14 bra $Lt_10_49922;
GPGPU-Sim PTX:    immediate post dominator      @  PC=0x17b0 (_1.ptx:1039) mov.f32 %f221, 0f00000000;   // 0
GPGPU-Sim PTX: 19 (potential) branch divergence @  PC=0x15e0 (_1.ptx:966) @!%p15 bra $Lt_10_50434;
GPGPU-Sim PTX:    immediate post dominator      @  PC=0x1638 (_1.ptx:982) mov.f32 %f190, %f183;
GPGPU-Sim PTX: 20 (potential) branch divergence @  PC=0x15f0 (_1.ptx:968) bra.uni $Lt_10_50178;
GPGPU-Sim PTX:    immediate post dominator      @  PC=0x1638 (_1.ptx:982) mov.f32 %f190, %f183;
GPGPU-Sim PTX: 21 (potential) branch divergence @  PC=0x1640 (_1.ptx:983) bra.uni $Lt_10_49666;
GPGPU-Sim PTX:    immediate post dominator      @  PC=0x17b0 (_1.ptx:1039) mov.f32 %f221, 0f00000000;   // 0
GPGPU-Sim PTX: 22 (potential) branch divergence @  PC=0x1738 (_1.ptx:1016) @%p18 bra $Lt_10_50946;
GPGPU-Sim PTX:    immediate post dominator      @  PC=0x17a8 (_1.ptx:1036) mov.f32 %f190, %f214;
GPGPU-Sim PTX: 23 (potential) branch divergence @  PC=0x1748 (_1.ptx:1018) bra.uni $Lt_10_51202;
GPGPU-Sim PTX:    immediate post dominator      @  PC=0x17a8 (_1.ptx:1036) mov.f32 %f190, %f214;
GPGPU-Sim PTX: 24 (potential) branch divergence @  PC=0x1768 (_1.ptx:1023) @!%p19 bra $Lt_10_51458;
GPGPU-Sim PTX:    immediate post dominator      @  PC=0x17a8 (_1.ptx:1036) mov.f32 %f190, %f214;
GPGPU-Sim PTX: 25 (potential) branch divergence @  PC=0x1778 (_1.ptx:1025) bra.uni $Lt_10_51202;
GPGPU-Sim PTX:    immediate post dominator      @  PC=0x17a8 (_1.ptx:1036) mov.f32 %f190, %f214;
GPGPU-Sim PTX: 26 (potential) branch divergence @  PC=0x17c0 (_1.ptx:1041) @!%p20 bra $Lt_10_58370;
GPGPU-Sim PTX:    immediate post dominator      @  PC=0x1828 (_1.ptx:1057) add.s32 %r50, %r50, 1;
GPGPU-Sim PTX: 27 (potential) branch divergence @  PC=0x1818 (_1.ptx:1052) @!%p21 bra $Lt_10_58370;
GPGPU-Sim PTX:    immediate post dominator      @  PC=0x1828 (_1.ptx:1057) add.s32 %r50, %r50, 1;
GPGPU-Sim PTX: 28 (potential) branch divergence @  PC=0x1848 (_1.ptx:1061) @%p22 bra $Lt_10_58882;
GPGPU-Sim PTX:    immediate post dominator      @  PC=0x1880 (_1.ptx:1071) @!%p23 bra $Lt_10_58114;
GPGPU-Sim PTX: 29 (potential) branch divergence @  PC=0x1860 (_1.ptx:1064) @%p23 bra $L_10_42498;
GPGPU-Sim PTX:    immediate post dominator      @  PC=0x1880 (_1.ptx:1071) @!%p23 bra $Lt_10_58114;
GPGPU-Sim PTX: 30 (potential) branch divergence @  PC=0x1868 (_1.ptx:1065) bra.uni $L_10_43266;
GPGPU-Sim PTX:    immediate post dominator      @  PC=0x1880 (_1.ptx:1071) @!%p23 bra $Lt_10_58114;
GPGPU-Sim PTX: 31 (potential) branch divergence @  PC=0x1880 (_1.ptx:1071) @!%p23 bra $Lt_10_58114;
GPGPU-Sim PTX:    immediate post dominator      @  PC=0x2080 (_1.ptx:1388) add.f32 %f399, %f126, %f126;
GPGPU-Sim PTX: 32 (potential) branch divergence @  PC=0x19c8 (_1.ptx:1115) @!%p24 bra $Lt_10_51714;
GPGPU-Sim PTX:    immediate post dominator      @  PC=0x2040 (_1.ptx:1375) mov.f32 %f394, 0f3f4ccccd;   // 0.8
GPGPU-Sim PTX: 33 (potential) branch divergence @  PC=0x19d8 (_1.ptx:1118) bra.uni $LDWendi___isnanf_192_1;
GPGPU-Sim PTX:    immediate post dominator      @  PC=0x2040 (_1.ptx:1375) mov.f32 %f394, 0f3f4ccccd;   // 0.8
GPGPU-Sim PTX: 34 (potential) branch divergence @  PC=0x19f8 (_1.ptx:1124) @!%p25 bra $Lt_10_7682;
GPGPU-Sim PTX:    immediate post dominator      @  PC=0x2040 (_1.ptx:1375) mov.f32 %f394, 0f3f4ccccd;   // 0.8
GPGPU-Sim PTX: 35 (potential) branch divergence @  PC=0x1a00 (_1.ptx:1125) bra.uni $Lt_10_7938;
GPGPU-Sim PTX:    immediate post dominator      @  PC=0x1a20 (_1.ptx:1133) mov.f32 %f272, 0f7f800000;   // ((1.0F)/(0.0F))
GPGPU-Sim PTX: 36 (potential) branch divergence @  PC=0x1a18 (_1.ptx:1130) bra.uni $LDWendi___isnanf_192_1;
GPGPU-Sim PTX:    immediate post dominator      @  PC=0x2040 (_1.ptx:1375) mov.f32 %f394, 0f3f4ccccd;   // 0.8
GPGPU-Sim PTX: 37 (potential) branch divergence @  PC=0x1a30 (_1.ptx:1135) @!%p26 bra $Lt_10_52226;
GPGPU-Sim PTX:    immediate post dominator      @  PC=0x2040 (_1.ptx:1375) mov.f32 %f394, 0f3f4ccccd;   // 0.8
GPGPU-Sim PTX: 38 (potential) branch divergence @  PC=0x1a40 (_1.ptx:1138) bra.uni $LDWendi___isnanf_192_1;
GPGPU-Sim PTX:    immediate post dominator      @  PC=0x2040 (_1.ptx:1375) mov.f32 %f394, 0f3f4ccccd;   // 0.8
GPGPU-Sim PTX: 39 (potential) branch divergence @  PC=0x1a58 (_1.ptx:1142) @!%p27 bra $Lt_10_52738;
GPGPU-Sim PTX:    immediate post dominator      @  PC=0x2040 (_1.ptx:1375) mov.f32 %f394, 0f3f4ccccd;   // 0.8
GPGPU-Sim PTX: 40 (potential) branch divergence @  PC=0x1ab8 (_1.ptx:1155) bra.uni $LDWendi___isnanf_192_1;
GPGPU-Sim PTX:    immediate post dominator      @  PC=0x2040 (_1.ptx:1375) mov.f32 %f394, 0f3f4ccccd;   // 0.8
GPGPU-Sim PTX: 41 (potential) branch divergence @  PC=0x1ad0 (_1.ptx:1159) @!%p29 bra $Lt_10_53250;
GPGPU-Sim PTX:    immediate post dominator      @  PC=0x2040 (_1.ptx:1375) mov.f32 %f394, 0f3f4ccccd;   // 0.8
GPGPU-Sim PTX: 42 (potential) branch divergence @  PC=0x1b20 (_1.ptx:1170) @!%p30 bra $Lt_10_53762;
GPGPU-Sim PTX:    immediate post dominator      @  PC=0x1b40 (_1.ptx:1177) mov.f32 %f268, %f284;
GPGPU-Sim PTX: 43 (potential) branch divergence @  PC=0x1b48 (_1.ptx:1178) bra.uni $LDWendi___isnanf_192_1;
GPGPU-Sim PTX:    immediate post dominator      @  PC=0x2040 (_1.ptx:1375) mov.f32 %f394, 0f3f4ccccd;   // 0.8
GPGPU-Sim PTX: 44 (potential) branch divergence @  PC=0x1b60 (_1.ptx:1183) @!%p31 bra $Lt_10_59394;
GPGPU-Sim PTX:    immediate post dominator      @  PC=0x2040 (_1.ptx:1375) mov.f32 %f394, 0f3f4ccccd;   // 0.8
GPGPU-Sim PTX: 45 (potential) branch divergence @  PC=0x1b88 (_1.ptx:1188) @!%p32 bra $Lt_10_59394;
GPGPU-Sim PTX:    immediate post dominator      @  PC=0x2040 (_1.ptx:1375) mov.f32 %f394, 0f3f4ccccd;   // 0.8
GPGPU-Sim PTX: 46 (potential) branch divergence @  PC=0x1ba0 (_1.ptx:1192) bra.uni $LDWendi___isnanf_192_1;
GPGPU-Sim PTX:    immediate post dominator      @  PC=0x2040 (_1.ptx:1375) mov.f32 %f394, 0f3f4ccccd;   // 0.8
GPGPU-Sim PTX: 47 (potential) branch divergence @  PC=0x1bd8 (_1.ptx:1202) @%p33 bra $Lt_10_54530;
GPGPU-Sim PTX:    immediate post dominator      @  PC=0x1c20 (_1.ptx:1216) sub.s32 %r64, %r64, 127;
GPGPU-Sim PTX: 48 (potential) branch divergence @  PC=0x1c10 (_1.ptx:1211) bra.uni $Lt_10_54274;
GPGPU-Sim PTX:    immediate post dominator      @  PC=0x1c20 (_1.ptx:1216) sub.s32 %r64, %r64, 127;
GPGPU-Sim PTX: 49 (potential) branch divergence @  PC=0x1c58 (_1.ptx:1224) @!%p34 bra $Lt_10_54786;
GPGPU-Sim PTX:    immediate post dominator      @  PC=0x1c78 (_1.ptx:1232) mov.f32 %f302, 0fbf800000;   // -1
GPGPU-Sim PTX: 50 (potential) branch divergence @  PC=0x1eb0 (_1.ptx:1312) @%p35 bra $Lt_10_55298;
GPGPU-Sim PTX:    immediate post dominator      @  PC=0x1ed8 (_1.ptx:1321) mov.f32 %f367, %f365;
GPGPU-Sim PTX: 51 (potential) branch divergence @  PC=0x1f98 (_1.ptx:1346) @!%p38 bra $Lt_10_55810;
GPGPU-Sim PTX:    immediate post dominator      @  PC=0x1fa8 (_1.ptx:1351) mov.f32 %f284, %f386;
GPGPU-Sim PTX: 52 (potential) branch divergence @  PC=0x2018 (_1.ptx:1365) @%p39 bra $Lt_10_56322;
GPGPU-Sim PTX:    immediate post dominator      @  PC=0x2038 (_1.ptx:1372) mov.f32 %f268, %f284;
GPGPU-Sim PTX: 53 (potential) branch divergence @  PC=0x2158 (_1.ptx:1419) @%p40 bra $L_10_42242;
GPGPU-Sim PTX:    immediate post dominator      @  PC=0x2170 (_1.ptx:1424) sub.s32 %r86, %r24, 1;
GPGPU-Sim PTX: 54 (potential) branch divergence @  PC=0x2168 (_1.ptx:1421) @%p41 bra $L_10_41474;
GPGPU-Sim PTX:    immediate post dominator      @  PC=0x2170 (_1.ptx:1424) sub.s32 %r86, %r24, 1;
GPGPU-Sim PTX: 55 (potential) branch divergence @  PC=0x2190 (_1.ptx:1428) @%p42 bra $Lt_10_56834;
GPGPU-Sim PTX:    immediate post dominator      @  PC=0x2288 (_1.ptx:1464) ld.global.u32 %r92, [%rd4+0];
GPGPU-Sim PTX: 56 (potential) branch divergence @  PC=0x2280 (_1.ptx:1461) @%p43 bra $Lt_10_57346;
GPGPU-Sim PTX:    immediate post dominator      @  PC=0x2288 (_1.ptx:1464) ld.global.u32 %r92, [%rd4+0];
GPGPU-Sim PTX: ... end of reconvergence points for _Z6renderPjP4Nodejjff
GPGPU-Sim PTX: ... done pre-decoding instructions for '_Z6renderPjP4Nodejjff'.
GPGPU-Sim PTX: instruction assembly for function '_ZN4dim3C1Ejjj'...   done.
GPGPU-Sim PTX: finding reconvergence points for '_ZN4dim3C1Ejjj'...
GPGPU-Sim PTX: Finding dominators for '_ZN4dim3C1Ejjj'...
GPGPU-Sim PTX: Finding immediate dominators for '_ZN4dim3C1Ejjj'...
GPGPU-Sim PTX: Finding postdominators for '_ZN4dim3C1Ejjj'...
GPGPU-Sim PTX: Finding immediate postdominators for '_ZN4dim3C1Ejjj'...
GPGPU-Sim PTX: pre-decoding instructions for '_ZN4dim3C1Ejjj'...
GPGPU-Sim PTX: reconvergence points for _ZN4dim3C1Ejjj...
GPGPU-Sim PTX: ... end of reconvergence points for _ZN4dim3C1Ejjj
GPGPU-Sim PTX: ... done pre-decoding instructions for '_ZN4dim3C1Ejjj'.
GPGPU-Sim PTX: finished parsing EMBEDDED .ptx file _1.ptx
Adding _cuobjdump_2.ptx with cubin handle 1
GPGPU-Sim PTX: extracting embedded .ptx to temporary file "_ptx_Q2zCHh"
Running: cat _ptx_Q2zCHh | sed 's/.version 1.5/.version 1.4/' | sed 's/, texmode_independent//' | sed 's/\(\.extern \.const\[1\] .b8 \w\+\)\[\]/\1\[1\]/' | sed 's/const\[.\]/const\[0\]/g' > _ptx2_GvTsHL
GPGPU-Sim PTX: generating ptxinfo using "$CUDA_INSTALL_PATH/bin/ptxas --gpu-name=sm_20 -v _ptx2_GvTsHL --output-file  /dev/null 2> _ptx_Q2zCHhinfo"
GPGPU-Sim PTX: Kernel '_Z6renderPjP4Nodejjff' : regs=45, lmem=4, smem=0, cmem=180
GPGPU-Sim PTX: removing ptxinfo using "rm -f _ptx_Q2zCHh _ptx2_GvTsHL _ptx_Q2zCHhinfo"
GPGPU-Sim PTX: loading globals with explicit initializers... 
GPGPU-Sim PTX: finished loading globals (0 bytes total).
GPGPU-Sim PTX: loading constants with explicit initializers...  done.
GPGPU-Sim PTX: __cudaRegisterVar: hostVar = 0x636760; deviceAddress = MView; deviceName = MView
GPGPU-Sim PTX: __cudaRegisterVar: Registering const memory space of 48 bytes
GPGPU-Sim PTX registering constant MView (48 bytes) to name mapping
GPGPU-Sim PTX: __cudaRegisterVar: hostVar = 0x6367a0; deviceAddress = cnode; deviceName = cnode
GPGPU-Sim PTX: __cudaRegisterVar: Registering const memory space of 160 bytes
GPGPU-Sim PTX registering constant cnode (160 bytes) to name mapping
GPGPU-Sim PTX: cudaMemcpyToSymbol: symbol = 0x6367a0
GPGPU-Sim PTX: starting gpgpu_ptx_sim_memcpy_symbol with hostVar 0x0x6367a0
GPGPU-Sim PTX: gpgpu_ptx_sim_memcpy_symbol: Found PTX symbol w/ hostVar=0x6367a0
GPGPU-Sim PTX: gpgpu_ptx_sim_memcpy_symbol: copying const memory 160 bytes  to  symbol cnode+0 @0x100 ...
GPGPU-Sim PTX: cudaMemcpyToSymbol: symbol = 0x636760
GPGPU-Sim PTX: starting gpgpu_ptx_sim_memcpy_symbol with hostVar 0x0x636760
GPGPU-Sim PTX: gpgpu_ptx_sim_memcpy_symbol: Found PTX symbol w/ hostVar=0x636760
GPGPU-Sim PTX: gpgpu_ptx_sim_memcpy_symbol: copying const memory 48 bytes  to  symbol MView+0 @0x200 ...

GPGPU-Sim PTX: cudaLaunch for 0x0x40a280 (mode=performance simulation) on stream 0
GPGPU-Sim PTX: pushing kernel '_Z6renderPjP4Nodejjff' to stream 0, gridDim= (16,32,1) blockDim = (16,8,1) 
kernel '_Z6renderPjP4Nodejjff' transfer to GPU hardware scheduler
GPGPU-Sim uArch: Shader 1 bind to kernel 1 '_Z6renderPjP4Nodejjff'
GPGPU-Sim uArch: CTA/core = 2, limited by: regs
GPGPU-Sim uArch: core:  1, cta: 0 initialized @(1,0)
GPGPU-Sim uArch: Shader 2 bind to kernel 1 '_Z6renderPjP4Nodejjff'
GPGPU-Sim uArch: core:  2, cta: 0 initialized @(1,0)
GPGPU-Sim uArch: Shader 3 bind to kernel 1 '_Z6renderPjP4Nodejjff'
GPGPU-Sim uArch: core:  3, cta: 0 initialized @(1,0)
GPGPU-Sim uArch: Shader 4 bind to kernel 1 '_Z6renderPjP4Nodejjff'
GPGPU-Sim uArch: core:  4, cta: 0 initialized @(1,0)
GPGPU-Sim uArch: Shader 5 bind to kernel 1 '_Z6renderPjP4Nodejjff'
GPGPU-Sim uArch: core:  5, cta: 0 initialized @(1,0)
GPGPU-Sim uArch: Shader 6 bind to kernel 1 '_Z6renderPjP4Nodejjff'
GPGPU-Sim uArch: core:  6, cta: 0 initialized @(1,0)
GPGPU-Sim uArch: Shader 7 bind to kernel 1 '_Z6renderPjP4Nodejjff'
GPGPU-Sim uArch: core:  7, cta: 0 initialized @(1,0)
GPGPU-Sim uArch: Shader 8 bind to kernel 1 '_Z6renderPjP4Nodejjff'
GPGPU-Sim uArch: core:  8, cta: 0 initialized @(1,0)
GPGPU-Sim uArch: Shader 9 bind to kernel 1 '_Z6renderPjP4Nodejjff'
GPGPU-Sim uArch: core:  9, cta: 0 initialized @(1,0)
GPGPU-Sim uArch: Shader 10 bind to kernel 1 '_Z6renderPjP4Nodejjff'
GPGPU-Sim uArch: core: 10, cta: 0 initialized @(1,0)
GPGPU-Sim uArch: Shader 11 bind to kernel 1 '_Z6renderPjP4Nodejjff'
GPGPU-Sim uArch: core: 11, cta: 0 initialized @(1,0)
GPGPU-Sim uArch: Shader 12 bind to kernel 1 '_Z6renderPjP4Nodejjff'
GPGPU-Sim uArch: core: 12, cta: 0 initialized @(1,0)
GPGPU-Sim uArch: Shader 13 bind to kernel 1 '_Z6renderPjP4Nodejjff'
GPGPU-Sim uArch: core: 13, cta: 0 initialized @(1,0)
GPGPU-Sim uArch: Shader 14 bind to kernel 1 '_Z6renderPjP4Nodejjff'
GPGPU-Sim uArch: core: 14, cta: 0 initialized @(1,0)
GPGPU-Sim uArch: Shader 0 bind to kernel 1 '_Z6renderPjP4Nodejjff'
GPGPU-Sim uArch: core:  0, cta: 0 initialized @(1,0)
GPGPU-Sim uArch: core:  1, cta: 1 initialized @(2,0)
GPGPU-Sim uArch: core:  2, cta: 1 initialized @(2,0)
GPGPU-Sim uArch: core:  3, cta: 1 initialized @(2,0)
GPGPU-Sim uArch: core:  4, cta: 1 initialized @(2,0)
GPGPU-Sim uArch: core:  5, cta: 1 initialized @(2,0)
GPGPU-Sim uArch: core:  6, cta: 1 initialized @(2,0)
GPGPU-Sim uArch: core:  7, cta: 1 initialized @(2,0)
GPGPU-Sim uArch: core:  8, cta: 1 initialized @(2,0)
GPGPU-Sim uArch: core:  9, cta: 1 initialized @(2,0)
GPGPU-Sim uArch: core: 10, cta: 1 initialized @(2,0)
GPGPU-Sim uArch: core: 11, cta: 1 initialized @(2,0)
GPGPU-Sim uArch: core: 12, cta: 1 initialized @(2,0)
GPGPU-Sim uArch: core: 13, cta: 1 initialized @(2,0)
GPGPU-Sim uArch: core: 14, cta: 1 initialized @(2,0)
GPGPU-Sim uArch: core:  0, cta: 1 initialized @(2,0)
GPGPU-Sim uArch: cycles simulated: 500  inst.: 21632 (ipc=43.3) sim_rate=10816 (inst/sec) elapsed = 0:0:00:02 / Tue May 12 16:46:04 2015
GPGPU-Sim uArch: cycles simulated: 1000  inst.: 47872 (ipc=47.9) sim_rate=15957 (inst/sec) elapsed = 0:0:00:03 / Tue May 12 16:46:05 2015
GPGPU-Sim uArch: cycles simulated: 1500  inst.: 58624 (ipc=39.1) sim_rate=14656 (inst/sec) elapsed = 0:0:00:04 / Tue May 12 16:46:06 2015
GPGPU-Sim uArch: cycles simulated: 2000  inst.: 67840 (ipc=33.9) sim_rate=13568 (inst/sec) elapsed = 0:0:00:05 / Tue May 12 16:46:07 2015
GPGPU-Sim uArch: cycles simulated: 2500  inst.: 83968 (ipc=33.6) sim_rate=13994 (inst/sec) elapsed = 0:0:00:06 / Tue May 12 16:46:08 2015
GPGPU-Sim PTX: 100000 instructions simulated : ctaid=(6,0,0) tid=(15,1,0)
GPGPU-Sim uArch: cycles simulated: 3000  inst.: 96384 (ipc=32.1) sim_rate=13769 (inst/sec) elapsed = 0:0:00:07 / Tue May 12 16:46:09 2015
GPGPU-Sim uArch: cycles simulated: 3500  inst.: 109824 (ipc=31.4) sim_rate=13728 (inst/sec) elapsed = 0:0:00:08 / Tue May 12 16:46:10 2015
GPGPU-Sim uArch: cycles simulated: 4000  inst.: 135680 (ipc=33.9) sim_rate=15075 (inst/sec) elapsed = 0:0:00:09 / Tue May 12 16:46:11 2015
GPGPU-Sim uArch: cycles simulated: 4500  inst.: 151552 (ipc=33.7) sim_rate=15155 (inst/sec) elapsed = 0:0:00:10 / Tue May 12 16:46:12 2015
GPGPU-Sim uArch: cycles simulated: 5000  inst.: 177280 (ipc=35.5) sim_rate=16116 (inst/sec) elapsed = 0:0:00:11 / Tue May 12 16:46:13 2015
GPGPU-Sim PTX: 200000 instructions simulated : ctaid=(6,1,0) tid=(15,3,0)
GPGPU-Sim uArch: cycles simulated: 5500  inst.: 215552 (ipc=39.2) sim_rate=17962 (inst/sec) elapsed = 0:0:00:12 / Tue May 12 16:46:14 2015
GPGPU-Sim uArch: cycles simulated: 6000  inst.: 265600 (ipc=44.3) sim_rate=18971 (inst/sec) elapsed = 0:0:00:14 / Tue May 12 16:46:16 2015
GPGPU-Sim PTX: 300000 instructions simulated : ctaid=(0,0,0) tid=(15,5,0)
GPGPU-Sim uArch: cycles simulated: 6500  inst.: 329856 (ipc=50.7) sim_rate=21990 (inst/sec) elapsed = 0:0:00:15 / Tue May 12 16:46:17 2015
GPGPU-Sim PTX: 400000 instructions simulated : ctaid=(6,0,0) tid=(15,7,0)
GPGPU-Sim uArch: cycles simulated: 7000  inst.: 420864 (ipc=60.1) sim_rate=24756 (inst/sec) elapsed = 0:0:00:17 / Tue May 12 16:46:19 2015
GPGPU-Sim PTX: 500000 instructions simulated : ctaid=(4,0,0) tid=(15,1,0)
GPGPU-Sim uArch: cycles simulated: 7500  inst.: 512256 (ipc=68.3) sim_rate=26960 (inst/sec) elapsed = 0:0:00:19 / Tue May 12 16:46:21 2015
GPGPU-Sim uArch: cycles simulated: 8000  inst.: 572160 (ipc=71.5) sim_rate=28608 (inst/sec) elapsed = 0:0:00:20 / Tue May 12 16:46:22 2015
GPGPU-Sim PTX: 600000 instructions simulated : ctaid=(4,1,0) tid=(15,3,0)
GPGPU-Sim uArch: cycles simulated: 8500  inst.: 675328 (ipc=79.5) sim_rate=30696 (inst/sec) elapsed = 0:0:00:22 / Tue May 12 16:46:24 2015
GPGPU-Sim PTX: 700000 instructions simulated : ctaid=(1,0,0) tid=(15,5,0)
GPGPU-Sim PTX: 800000 instructions simulated : ctaid=(11,1,0) tid=(15,7,0)
GPGPU-Sim uArch: cycles simulated: 9000  inst.: 873856 (ipc=97.1) sim_rate=34954 (inst/sec) elapsed = 0:0:00:25 / Tue May 12 16:46:27 2015
GPGPU-Sim PTX: 900000 instructions simulated : ctaid=(4,0,0) tid=(15,1,0)
GPGPU-Sim PTX: 1000000 instructions simulated : ctaid=(12,0,0) tid=(15,3,0)
GPGPU-Sim uArch: cycles simulated: 9500  inst.: 1069056 (ipc=112.5) sim_rate=39594 (inst/sec) elapsed = 0:0:00:27 / Tue May 12 16:46:29 2015
GPGPU-Sim PTX: 1100000 instructions simulated : ctaid=(3,0,0) tid=(15,5,0)
GPGPU-Sim PTX: 1200000 instructions simulated : ctaid=(2,1,0) tid=(15,7,0)
GPGPU-Sim uArch: cycles simulated: 10000  inst.: 1245696 (ipc=124.6) sim_rate=41523 (inst/sec) elapsed = 0:0:00:30 / Tue May 12 16:46:32 2015
GPGPU-Sim PTX: 1300000 instructions simulated : ctaid=(4,0,0) tid=(15,1,0)
GPGPU-Sim uArch: cycles simulated: 10500  inst.: 1320960 (ipc=125.8) sim_rate=42611 (inst/sec) elapsed = 0:0:00:31 / Tue May 12 16:46:33 2015
GPGPU-Sim PTX: 1400000 instructions simulated : ctaid=(9,0,0) tid=(15,3,0)
GPGPU-Sim uArch: cycles simulated: 11000  inst.: 1393920 (ipc=126.7) sim_rate=42240 (inst/sec) elapsed = 0:0:00:33 / Tue May 12 16:46:35 2015
GPGPU-Sim PTX: 1500000 instructions simulated : ctaid=(9,1,0) tid=(15,5,0)
GPGPU-Sim uArch: cycles simulated: 11500  inst.: 1462656 (ipc=127.2) sim_rate=43019 (inst/sec) elapsed = 0:0:00:34 / Tue May 12 16:46:36 2015
GPGPU-Sim uArch: cycles simulated: 12000  inst.: 1524480 (ipc=127.0) sim_rate=42346 (inst/sec) elapsed = 0:0:00:36 / Tue May 12 16:46:38 2015
GPGPU-Sim PTX: 1600000 instructions simulated : ctaid=(4,0,0) tid=(15,7,0)
GPGPU-Sim uArch: cycles simulated: 12500  inst.: 1605120 (ipc=128.4) sim_rate=43381 (inst/sec) elapsed = 0:0:00:37 / Tue May 12 16:46:39 2015
GPGPU-Sim uArch: cycles simulated: 13000  inst.: 1624320 (ipc=124.9) sim_rate=42745 (inst/sec) elapsed = 0:0:00:38 / Tue May 12 16:46:40 2015
GPGPU-Sim PTX: 1700000 instructions simulated : ctaid=(13,1,0) tid=(15,1,0)
GPGPU-Sim PTX: 1800000 instructions simulated : ctaid=(4,0,0) tid=(15,3,0)
GPGPU-Sim uArch: cycles simulated: 13500  inst.: 1762560 (ipc=130.6) sim_rate=44064 (inst/sec) elapsed = 0:0:00:40 / Tue May 12 16:46:42 2015
GPGPU-Sim PTX: 1900000 instructions simulated : ctaid=(11,1,0) tid=(3,5,0)
GPGPU-Sim PTX: 2000000 instructions simulated : ctaid=(15,0,0) tid=(3,7,0)
GPGPU-Sim uArch: cycles simulated: 14000  inst.: 1985420 (ipc=141.8) sim_rate=46172 (inst/sec) elapsed = 0:0:00:43 / Tue May 12 16:46:45 2015
GPGPU-Sim PTX: 2100000 instructions simulated : ctaid=(11,1,0) tid=(3,1,0)
GPGPU-Sim PTX: 2200000 instructions simulated : ctaid=(5,0,0) tid=(3,3,0)
GPGPU-Sim PTX: 2300000 instructions simulated : ctaid=(5,0,0) tid=(5,1,0)
GPGPU-Sim uArch: cycles simulated: 14500  inst.: 2248364 (ipc=155.1) sim_rate=47837 (inst/sec) elapsed = 0:0:00:47 / Tue May 12 16:46:49 2015
GPGPU-Sim PTX: 2400000 instructions simulated : ctaid=(7,1,0) tid=(3,5,0)
GPGPU-Sim uArch: cycles simulated: 15000  inst.: 2326828 (ipc=155.1) sim_rate=47486 (inst/sec) elapsed = 0:0:00:49 / Tue May 12 16:46:51 2015
GPGPU-Sim uArch: cycles simulated: 15500  inst.: 2414636 (ipc=155.8) sim_rate=48292 (inst/sec) elapsed = 0:0:00:50 / Tue May 12 16:46:52 2015
GPGPU-Sim PTX: 2500000 instructions simulated : ctaid=(10,0,0) tid=(3,7,0)
GPGPU-Sim uArch: cycles simulated: 16000  inst.: 2445996 (ipc=152.9) sim_rate=47960 (inst/sec) elapsed = 0:0:00:51 / Tue May 12 16:46:53 2015
GPGPU-Sim uArch: cycles simulated: 16500  inst.: 2467244 (ipc=149.5) sim_rate=47447 (inst/sec) elapsed = 0:0:00:52 / Tue May 12 16:46:54 2015
GPGPU-Sim PTX: 2600000 instructions simulated : ctaid=(9,1,0) tid=(12,2,0)
GPGPU-Sim uArch: cycles simulated: 17000  inst.: 2539300 (ipc=149.4) sim_rate=47911 (inst/sec) elapsed = 0:0:00:53 / Tue May 12 16:46:55 2015
GPGPU-Sim uArch: cycles simulated: 17500  inst.: 2600996 (ipc=148.6) sim_rate=48166 (inst/sec) elapsed = 0:0:00:54 / Tue May 12 16:46:56 2015
GPGPU-Sim PTX: 2700000 instructions simulated : ctaid=(13,0,0) tid=(15,7,0)
GPGPU-Sim uArch: cycles simulated: 18000  inst.: 2714788 (ipc=150.8) sim_rate=48478 (inst/sec) elapsed = 0:0:00:56 / Tue May 12 16:46:58 2015
GPGPU-Sim PTX: 2800000 instructions simulated : ctaid=(8,0,0) tid=(15,1,0)
GPGPU-Sim uArch: cycles simulated: 18500  inst.: 2785060 (ipc=150.5) sim_rate=48018 (inst/sec) elapsed = 0:0:00:58 / Tue May 12 16:47:00 2015
GPGPU-Sim PTX: 2900000 instructions simulated : ctaid=(2,0,0) tid=(15,3,0)
GPGPU-Sim uArch: cycles simulated: 19000  inst.: 2880932 (ipc=151.6) sim_rate=48829 (inst/sec) elapsed = 0:0:00:59 / Tue May 12 16:47:01 2015
GPGPU-Sim PTX: 3000000 instructions simulated : ctaid=(6,0,0) tid=(15,5,0)
GPGPU-Sim uArch: cycles simulated: 19500  inst.: 2950180 (ipc=151.3) sim_rate=49169 (inst/sec) elapsed = 0:0:01:00 / Tue May 12 16:47:02 2015
GPGPU-Sim PTX: 3100000 instructions simulated : ctaid=(0,1,0) tid=(15,7,0)
GPGPU-Sim uArch: cycles simulated: 20000  inst.: 3025828 (ipc=151.3) sim_rate=48803 (inst/sec) elapsed = 0:0:01:02 / Tue May 12 16:47:04 2015
GPGPU-Sim uArch: cycles simulated: 20500  inst.: 3114148 (ipc=151.9) sim_rate=48658 (inst/sec) elapsed = 0:0:01:04 / Tue May 12 16:47:06 2015
GPGPU-Sim PTX: 3200000 instructions simulated : ctaid=(8,1,0) tid=(15,1,0)
GPGPU-Sim uArch: cycles simulated: 21000  inst.: 3192868 (ipc=152.0) sim_rate=49121 (inst/sec) elapsed = 0:0:01:05 / Tue May 12 16:47:07 2015
GPGPU-Sim PTX: 3300000 instructions simulated : ctaid=(2,1,0) tid=(15,3,0)
GPGPU-Sim PTX: 3400000 instructions simulated : ctaid=(10,0,0) tid=(15,5,0)
GPGPU-Sim uArch: cycles simulated: 21500  inst.: 3345188 (ipc=155.6) sim_rate=49193 (inst/sec) elapsed = 0:0:01:08 / Tue May 12 16:47:10 2015
GPGPU-Sim PTX: 3500000 instructions simulated : ctaid=(0,1,0) tid=(3,1,0)
GPGPU-Sim PTX: 3600000 instructions simulated : ctaid=(6,0,0) tid=(0,6,0)
GPGPU-Sim PTX: 3700000 instructions simulated : ctaid=(12,0,0) tid=(6,7,0)
GPGPU-Sim PTX: 3800000 instructions simulated : ctaid=(5,0,0) tid=(15,3,0)
GPGPU-Sim uArch: cycles simulated: 22000  inst.: 3721896 (ipc=169.2) sim_rate=50984 (inst/sec) elapsed = 0:0:01:13 / Tue May 12 16:47:15 2015
GPGPU-Sim PTX: 3900000 instructions simulated : ctaid=(11,0,0) tid=(13,0,0)
GPGPU-Sim uArch: cycles simulated: 22500  inst.: 3891890 (ipc=173.0) sim_rate=51891 (inst/sec) elapsed = 0:0:01:15 / Tue May 12 16:47:17 2015
GPGPU-Sim PTX: 4000000 instructions simulated : ctaid=(7,1,0) tid=(7,0,0)
GPGPU-Sim uArch: cycles simulated: 23000  inst.: 3959426 (ipc=172.1) sim_rate=51421 (inst/sec) elapsed = 0:0:01:17 / Tue May 12 16:47:19 2015
GPGPU-Sim PTX: 4100000 instructions simulated : ctaid=(6,0,0) tid=(5,5,0)
GPGPU-Sim uArch: cycles simulated: 23500  inst.: 4030451 (ipc=171.5) sim_rate=51672 (inst/sec) elapsed = 0:0:01:18 / Tue May 12 16:47:20 2015
GPGPU-Sim PTX: 4200000 instructions simulated : ctaid=(4,0,0) tid=(1,6,0)
GPGPU-Sim uArch: cycles simulated: 24000  inst.: 4151326 (ipc=173.0) sim_rate=51891 (inst/sec) elapsed = 0:0:01:20 / Tue May 12 16:47:22 2015
GPGPU-Sim uArch: Shader 14 finished CTA #0 (24094,0), 1 CTAs running
GPGPU-Sim uArch: core: 14, cta: 0 initialized @(24095,0)
GPGPU-Sim uArch: Shader 4 finished CTA #1 (24104,0), 1 CTAs running
GPGPU-Sim uArch: core:  4, cta: 1 initialized @(24105,0)
GPGPU-Sim uArch: Shader 0 finished CTA #0 (24110,0), 1 CTAs running
GPGPU-Sim uArch: core:  0, cta: 0 initialized @(24111,0)
GPGPU-Sim uArch: Shader 2 finished CTA #0 (24120,0), 1 CTAs running
GPGPU-Sim uArch: core:  2, cta: 0 initialized @(24121,0)
GPGPU-Sim uArch: Shader 3 finished CTA #0 (24128,0), 1 CTAs running
GPGPU-Sim uArch: core:  3, cta: 0 initialized @(24129,0)
GPGPU-Sim uArch: Shader 1 finished CTA #1 (24130,0), 1 CTAs running
GPGPU-Sim uArch: core:  1, cta: 1 initialized @(24131,0)
GPGPU-Sim uArch: Shader 0 finished CTA #1 (24142,0), 1 CTAs running
GPGPU-Sim uArch: core:  0, cta: 1 initialized @(24143,0)
GPGPU-Sim uArch: Shader 2 finished CTA #1 (24152,0), 1 CTAs running
GPGPU-Sim uArch: core:  2, cta: 1 initialized @(24153,0)
GPGPU-Sim uArch: Shader 3 finished CTA #1 (24160,0), 1 CTAs running
GPGPU-Sim uArch: core:  3, cta: 1 initialized @(24161,0)
GPGPU-Sim uArch: Shader 1 finished CTA #0 (24164,0), 1 CTAs running
GPGPU-Sim uArch: core:  1, cta: 0 initialized @(24165,0)
GPGPU-Sim PTX: 4300000 instructions simulated : ctaid=(9,1,0) tid=(12,1,0)
GPGPU-Sim PTX: 4400000 instructions simulated : ctaid=(6,2,0) tid=(7,0,0)
GPGPU-Sim uArch: cycles simulated: 24500  inst.: 4292196 (ipc=175.2) sim_rate=51713 (inst/sec) elapsed = 0:0:01:23 / Tue May 12 16:47:25 2015
GPGPU-Sim PTX: 4500000 instructions simulated : ctaid=(12,0,0) tid=(6,1,0)
GPGPU-Sim uArch: cycles simulated: 25000  inst.: 4436623 (ipc=177.5) sim_rate=51588 (inst/sec) elapsed = 0:0:01:26 / Tue May 12 16:47:28 2015
GPGPU-Sim PTX: 4600000 instructions simulated : ctaid=(11,1,0) tid=(1,5,0)
GPGPU-Sim uArch: cycles simulated: 25500  inst.: 4566587 (ipc=179.1) sim_rate=51893 (inst/sec) elapsed = 0:0:01:28 / Tue May 12 16:47:30 2015
GPGPU-Sim PTX: 4700000 instructions simulated : ctaid=(10,0,0) tid=(9,5,0)
GPGPU-Sim uArch: cycles simulated: 26000  inst.: 4668451 (ipc=179.6) sim_rate=51871 (inst/sec) elapsed = 0:0:01:30 / Tue May 12 16:47:32 2015
GPGPU-Sim PTX: 4800000 instructions simulated : ctaid=(14,1,0) tid=(11,6,0)
GPGPU-Sim PTX: 4900000 instructions simulated : ctaid=(15,1,0) tid=(7,0,0)
GPGPU-Sim uArch: cycles simulated: 26500  inst.: 4793781 (ipc=180.9) sim_rate=52106 (inst/sec) elapsed = 0:0:01:32 / Tue May 12 16:47:34 2015
GPGPU-Sim PTX: 5000000 instructions simulated : ctaid=(3,0,0) tid=(10,3,0)
GPGPU-Sim uArch: cycles simulated: 27000  inst.: 4926215 (ipc=182.5) sim_rate=52406 (inst/sec) elapsed = 0:0:01:34 / Tue May 12 16:47:36 2015
GPGPU-Sim PTX: 5100000 instructions simulated : ctaid=(3,2,0) tid=(5,1,0)
GPGPU-Sim PTX: 5200000 instructions simulated : ctaid=(5,2,0) tid=(7,3,0)
GPGPU-Sim uArch: cycles simulated: 27500  inst.: 5097122 (ipc=185.3) sim_rate=52547 (inst/sec) elapsed = 0:0:01:37 / Tue May 12 16:47:39 2015
GPGPU-Sim PTX: 5300000 instructions simulated : ctaid=(0,2,0) tid=(9,5,0)
GPGPU-Sim uArch: cycles simulated: 28000  inst.: 5219122 (ipc=186.4) sim_rate=52718 (inst/sec) elapsed = 0:0:01:39 / Tue May 12 16:47:41 2015
GPGPU-Sim PTX: 5400000 instructions simulated : ctaid=(5,2,0) tid=(2,5,0)
GPGPU-Sim uArch: cycles simulated: 28500  inst.: 5293411 (ipc=185.7) sim_rate=52410 (inst/sec) elapsed = 0:0:01:41 / Tue May 12 16:47:43 2015
GPGPU-Sim PTX: 5500000 instructions simulated : ctaid=(2,2,0) tid=(3,6,0)
GPGPU-Sim uArch: cycles simulated: 29000  inst.: 5370768 (ipc=185.2) sim_rate=52654 (inst/sec) elapsed = 0:0:01:42 / Tue May 12 16:47:44 2015
GPGPU-Sim uArch: cycles simulated: 29500  inst.: 5449062 (ipc=184.7) sim_rate=52394 (inst/sec) elapsed = 0:0:01:44 / Tue May 12 16:47:46 2015
GPGPU-Sim PTX: 5600000 instructions simulated : ctaid=(9,0,0) tid=(2,0,0)
GPGPU-Sim uArch: cycles simulated: 30000  inst.: 5537917 (ipc=184.6) sim_rate=52244 (inst/sec) elapsed = 0:0:01:46 / Tue May 12 16:47:48 2015
GPGPU-Sim PTX: 5700000 instructions simulated : ctaid=(15,1,0) tid=(1,4,0)
GPGPU-Sim PTX: 5800000 instructions simulated : ctaid=(6,2,0) tid=(10,4,0)
GPGPU-Sim uArch: cycles simulated: 30500  inst.: 5676075 (ipc=186.1) sim_rate=52556 (inst/sec) elapsed = 0:0:01:48 / Tue May 12 16:47:50 2015
GPGPU-Sim PTX: 5900000 instructions simulated : ctaid=(5,2,0) tid=(6,1,0)
GPGPU-Sim PTX: 6000000 instructions simulated : ctaid=(8,1,0) tid=(7,1,0)
GPGPU-Sim uArch: cycles simulated: 31000  inst.: 5881604 (ipc=189.7) sim_rate=52987 (inst/sec) elapsed = 0:0:01:51 / Tue May 12 16:47:53 2015
GPGPU-Sim PTX: 6100000 instructions simulated : ctaid=(8,1,0) tid=(8,3,0)
GPGPU-Sim uArch: cycles simulated: 31500  inst.: 6012522 (ipc=190.9) sim_rate=52741 (inst/sec) elapsed = 0:0:01:54 / Tue May 12 16:47:56 2015
GPGPU-Sim PTX: 6200000 instructions simulated : ctaid=(4,2,0) tid=(0,5,0)
GPGPU-Sim uArch: cycles simulated: 32000  inst.: 6082373 (ipc=190.1) sim_rate=52890 (inst/sec) elapsed = 0:0:01:55 / Tue May 12 16:47:57 2015
GPGPU-Sim PTX: 6300000 instructions simulated : ctaid=(11,1,0) tid=(12,1,0)
GPGPU-Sim uArch: cycles simulated: 32500  inst.: 6168694 (ipc=189.8) sim_rate=52723 (inst/sec) elapsed = 0:0:01:57 / Tue May 12 16:47:59 2015
GPGPU-Sim PTX: 6400000 instructions simulated : ctaid=(11,0,0) tid=(12,3,0)
GPGPU-Sim uArch: cycles simulated: 33000  inst.: 6264077 (ipc=189.8) sim_rate=52639 (inst/sec) elapsed = 0:0:01:59 / Tue May 12 16:48:01 2015
GPGPU-Sim uArch: Shader 6 finished CTA #1 (33103,0), 1 CTAs running
GPGPU-Sim uArch: core:  6, cta: 1 initialized @(33104,0)
GPGPU-Sim PTX: 6500000 instructions simulated : ctaid=(9,1,0) tid=(7,7,0)
GPGPU-Sim uArch: cycles simulated: 33500  inst.: 6346239 (ipc=189.4) sim_rate=52448 (inst/sec) elapsed = 0:0:02:01 / Tue May 12 16:48:03 2015
GPGPU-Sim PTX: 6600000 instructions simulated : ctaid=(8,2,0) tid=(8,3,0)
GPGPU-Sim uArch: cycles simulated: 34000  inst.: 6436798 (ipc=189.3) sim_rate=52760 (inst/sec) elapsed = 0:0:02:02 / Tue May 12 16:48:04 2015
GPGPU-Sim PTX: 6700000 instructions simulated : ctaid=(5,2,0) tid=(11,7,0)
GPGPU-Sim uArch: cycles simulated: 34500  inst.: 6523594 (ipc=189.1) sim_rate=52609 (inst/sec) elapsed = 0:0:02:04 / Tue May 12 16:48:06 2015
GPGPU-Sim uArch: Shader 13 finished CTA #0 (34565,0), 1 CTAs running
GPGPU-Sim uArch: core: 13, cta: 0 initialized @(34566,0)
GPGPU-Sim uArch: Shader 13 finished CTA #1 (34597,0), 1 CTAs running
GPGPU-Sim uArch: core: 13, cta: 1 initialized @(34598,0)
GPGPU-Sim uArch: Shader 14 finished CTA #0 (34729,0), 1 CTAs running
GPGPU-Sim uArch: core: 14, cta: 0 initialized @(34730,0)
GPGPU-Sim uArch: Shader 5 finished CTA #1 (34785,0), 1 CTAs running
GPGPU-Sim uArch: core:  5, cta: 1 initialized @(34786,0)
GPGPU-Sim uArch: cycles simulated: 35000  inst.: 6594609 (ipc=188.4) sim_rate=52338 (inst/sec) elapsed = 0:0:02:06 / Tue May 12 16:48:08 2015
GPGPU-Sim PTX: 6800000 instructions simulated : ctaid=(9,2,0) tid=(10,4,0)
GPGPU-Sim uArch: Shader 4 finished CTA #1 (35321,0), 1 CTAs running
GPGPU-Sim uArch: core:  4, cta: 1 initialized @(35322,0)
GPGPU-Sim uArch: Shader 4 finished CTA #0 (35413,0), 1 CTAs running
GPGPU-Sim uArch: core:  4, cta: 0 initialized @(35414,0)
GPGPU-Sim uArch: cycles simulated: 35500  inst.: 6662315 (ipc=187.7) sim_rate=52459 (inst/sec) elapsed = 0:0:02:07 / Tue May 12 16:48:09 2015
GPGPU-Sim uArch: Shader 14 finished CTA #1 (35801,0), 1 CTAs running
GPGPU-Sim uArch: core: 14, cta: 1 initialized @(35802,0)
GPGPU-Sim PTX: 6900000 instructions simulated : ctaid=(15,2,0) tid=(2,3,0)
GPGPU-Sim uArch: cycles simulated: 36000  inst.: 6762324 (ipc=187.8) sim_rate=52421 (inst/sec) elapsed = 0:0:02:09 / Tue May 12 16:48:11 2015
GPGPU-Sim PTX: 7000000 instructions simulated : ctaid=(15,2,0) tid=(12,5,0)
GPGPU-Sim PTX: 7100000 instructions simulated : ctaid=(8,2,0) tid=(7,7,0)
GPGPU-Sim uArch: cycles simulated: 36500  inst.: 6930843 (ipc=189.9) sim_rate=52506 (inst/sec) elapsed = 0:0:02:12 / Tue May 12 16:48:14 2015
GPGPU-Sim uArch: cycles simulated: 37000  inst.: 7008481 (ipc=189.4) sim_rate=52302 (inst/sec) elapsed = 0:0:02:14 / Tue May 12 16:48:16 2015
GPGPU-Sim PTX: 7200000 instructions simulated : ctaid=(9,1,0) tid=(0,5,0)
GPGPU-Sim uArch: Shader 2 finished CTA #1 (37491,0), 1 CTAs running
GPGPU-Sim uArch: core:  2, cta: 1 initialized @(37492,0)
GPGPU-Sim uArch: cycles simulated: 37500  inst.: 7081004 (ipc=188.8) sim_rate=52451 (inst/sec) elapsed = 0:0:02:15 / Tue May 12 16:48:17 2015
GPGPU-Sim uArch: Shader 2 finished CTA #0 (37526,0), 1 CTAs running
GPGPU-Sim uArch: core:  2, cta: 0 initialized @(37527,0)
GPGPU-Sim uArch: Shader 0 finished CTA #0 (37546,0), 1 CTAs running
GPGPU-Sim uArch: core:  0, cta: 0 initialized @(37547,0)
GPGPU-Sim uArch: Shader 1 finished CTA #1 (37634,0), 1 CTAs running
GPGPU-Sim uArch: core:  1, cta: 1 initialized @(37635,0)
GPGPU-Sim PTX: 7300000 instructions simulated : ctaid=(13,2,0) tid=(4,4,0)
GPGPU-Sim uArch: Shader 3 finished CTA #0 (37684,0), 1 CTAs running
GPGPU-Sim uArch: core:  3, cta: 0 initialized @(37685,0)
GPGPU-Sim uArch: cycles simulated: 38000  inst.: 7169245 (ipc=188.7) sim_rate=52330 (inst/sec) elapsed = 0:0:02:17 / Tue May 12 16:48:19 2015
GPGPU-Sim PTX: 7400000 instructions simulated : ctaid=(6,1,0) tid=(14,3,0)
GPGPU-Sim uArch: cycles simulated: 38500  inst.: 7279504 (ipc=189.1) sim_rate=52370 (inst/sec) elapsed = 0:0:02:19 / Tue May 12 16:48:21 2015
GPGPU-Sim PTX: 7500000 instructions simulated : ctaid=(2,3,0) tid=(2,0,0)
GPGPU-Sim uArch: cycles simulated: 39000  inst.: 7359979 (ipc=188.7) sim_rate=52198 (inst/sec) elapsed = 0:0:02:21 / Tue May 12 16:48:23 2015
GPGPU-Sim PTX: 7600000 instructions simulated : ctaid=(3,3,0) tid=(4,0,0)
GPGPU-Sim uArch: cycles simulated: 39500  inst.: 7462612 (ipc=188.9) sim_rate=52553 (inst/sec) elapsed = 0:0:02:22 / Tue May 12 16:48:24 2015
GPGPU-Sim PTX: 7700000 instructions simulated : ctaid=(0,3,0) tid=(15,0,0)
GPGPU-Sim uArch: cycles simulated: 40000  inst.: 7572260 (ipc=189.3) sim_rate=52222 (inst/sec) elapsed = 0:0:02:25 / Tue May 12 16:48:27 2015
GPGPU-Sim PTX: 7800000 instructions simulated : ctaid=(8,1,0) tid=(14,3,0)
GPGPU-Sim uArch: cycles simulated: 40500  inst.: 7671032 (ipc=189.4) sim_rate=52541 (inst/sec) elapsed = 0:0:02:26 / Tue May 12 16:48:28 2015
GPGPU-Sim PTX: 7900000 instructions simulated : ctaid=(9,2,0) tid=(6,3,0)
GPGPU-Sim PTX: 8000000 instructions simulated : ctaid=(0,3,0) tid=(12,3,0)
GPGPU-Sim uArch: cycles simulated: 41000  inst.: 7801423 (ipc=190.3) sim_rate=52358 (inst/sec) elapsed = 0:0:02:29 / Tue May 12 16:48:31 2015
GPGPU-Sim uArch: Shader 0 finished CTA #1 (41040,0), 1 CTAs running
GPGPU-Sim uArch: core:  0, cta: 1 initialized @(41041,0)
GPGPU-Sim PTX: 8100000 instructions simulated : ctaid=(10,2,0) tid=(7,4,0)
GPGPU-Sim uArch: cycles simulated: 41500  inst.: 7916235 (ipc=190.8) sim_rate=52425 (inst/sec) elapsed = 0:0:02:31 / Tue May 12 16:48:33 2015
GPGPU-Sim uArch: Shader 9 finished CTA #0 (41798,0), 1 CTAs running
GPGPU-Sim uArch: core:  9, cta: 0 initialized @(41799,0)
GPGPU-Sim PTX: 8200000 instructions simulated : ctaid=(13,2,0) tid=(12,3,0)
GPGPU-Sim uArch: cycles simulated: 42000  inst.: 8007741 (ipc=190.7) sim_rate=52338 (inst/sec) elapsed = 0:0:02:33 / Tue May 12 16:48:35 2015
GPGPU-Sim uArch: Shader 7 finished CTA #1 (42141,0), 1 CTAs running
GPGPU-Sim uArch: core:  7, cta: 1 initialized @(42142,0)
GPGPU-Sim PTX: 8300000 instructions simulated : ctaid=(7,2,0) tid=(2,1,0)
GPGPU-Sim uArch: cycles simulated: 42500  inst.: 8078883 (ipc=190.1) sim_rate=52121 (inst/sec) elapsed = 0:0:02:35 / Tue May 12 16:48:37 2015
GPGPU-Sim uArch: cycles simulated: 43000  inst.: 8147258 (ipc=189.5) sim_rate=52226 (inst/sec) elapsed = 0:0:02:36 / Tue May 12 16:48:38 2015
GPGPU-Sim PTX: 8400000 instructions simulated : ctaid=(10,2,0) tid=(13,4,0)
GPGPU-Sim uArch: cycles simulated: 43500  inst.: 8238255 (ipc=189.4) sim_rate=52140 (inst/sec) elapsed = 0:0:02:38 / Tue May 12 16:48:40 2015
GPGPU-Sim PTX: 8500000 instructions simulated : ctaid=(1,3,0) tid=(9,5,0)
GPGPU-Sim uArch: Shader 12 finished CTA #1 (43711,0), 1 CTAs running
GPGPU-Sim uArch: core: 12, cta: 1 initialized @(43712,0)
GPGPU-Sim uArch: cycles simulated: 44000  inst.: 8353216 (ipc=189.8) sim_rate=52207 (inst/sec) elapsed = 0:0:02:40 / Tue May 12 16:48:42 2015
GPGPU-Sim PTX: 8600000 instructions simulated : ctaid=(13,2,0) tid=(1,2,0)
GPGPU-Sim uArch: cycles simulated: 44500  inst.: 8454647 (ipc=190.0) sim_rate=52189 (inst/sec) elapsed = 0:0:02:42 / Tue May 12 16:48:44 2015
GPGPU-Sim PTX: 8700000 instructions simulated : ctaid=(10,2,0) tid=(6,6,0)
GPGPU-Sim uArch: cycles simulated: 45000  inst.: 8554703 (ipc=190.1) sim_rate=52162 (inst/sec) elapsed = 0:0:02:44 / Tue May 12 16:48:46 2015
GPGPU-Sim PTX: 8800000 instructions simulated : ctaid=(8,2,0) tid=(8,5,0)
GPGPU-Sim uArch: cycles simulated: 45500  inst.: 8660494 (ipc=190.3) sim_rate=52171 (inst/sec) elapsed = 0:0:02:46 / Tue May 12 16:48:48 2015
GPGPU-Sim PTX: 8900000 instructions simulated : ctaid=(4,3,0) tid=(0,1,0)
GPGPU-Sim uArch: cycles simulated: 46000  inst.: 8742690 (ipc=190.1) sim_rate=52039 (inst/sec) elapsed = 0:0:02:48 / Tue May 12 16:48:50 2015
GPGPU-Sim PTX: 9000000 instructions simulated : ctaid=(6,3,0) tid=(0,7,0)
GPGPU-Sim uArch: cycles simulated: 46500  inst.: 8825961 (ipc=189.8) sim_rate=51917 (inst/sec) elapsed = 0:0:02:50 / Tue May 12 16:48:52 2015
GPGPU-Sim PTX: 9100000 instructions simulated : ctaid=(10,2,0) tid=(0,6,0)
GPGPU-Sim PTX: 9200000 instructions simulated : ctaid=(11,2,0) tid=(2,3,0)
GPGPU-Sim uArch: cycles simulated: 47000  inst.: 8960589 (ipc=190.7) sim_rate=51795 (inst/sec) elapsed = 0:0:02:53 / Tue May 12 16:48:55 2015
GPGPU-Sim PTX: 9300000 instructions simulated : ctaid=(5,3,0) tid=(7,2,0)
GPGPU-Sim uArch: cycles simulated: 47500  inst.: 9067589 (ipc=190.9) sim_rate=51520 (inst/sec) elapsed = 0:0:02:56 / Tue May 12 16:48:58 2015
GPGPU-Sim PTX: 9400000 instructions simulated : ctaid=(7,2,0) tid=(5,3,0)
GPGPU-Sim uArch: cycles simulated: 48000  inst.: 9148806 (ipc=190.6) sim_rate=51397 (inst/sec) elapsed = 0:0:02:58 / Tue May 12 16:49:00 2015
GPGPU-Sim uArch: Shader 5 finished CTA #1 (48156,0), 1 CTAs running
GPGPU-Sim uArch: core:  5, cta: 1 initialized @(48157,0)
GPGPU-Sim uArch: Shader 14 finished CTA #1 (48160,0), 1 CTAs running
GPGPU-Sim uArch: core: 14, cta: 1 initialized @(48161,0)
GPGPU-Sim uArch: cycles simulated: 48500  inst.: 9237819 (ipc=190.5) sim_rate=51321 (inst/sec) elapsed = 0:0:03:00 / Tue May 12 16:49:02 2015
GPGPU-Sim PTX: 9500000 instructions simulated : ctaid=(8,3,0) tid=(1,1,0)
GPGPU-Sim uArch: Shader 4 finished CTA #0 (48683,0), 1 CTAs running
GPGPU-Sim uArch: core:  4, cta: 0 initialized @(48684,0)
GPGPU-Sim uArch: Shader 4 finished CTA #1 (48876,0), 1 CTAs running
GPGPU-Sim uArch: core:  4, cta: 1 initialized @(48877,0)
GPGPU-Sim uArch: cycles simulated: 49000  inst.: 9328327 (ipc=190.4) sim_rate=50974 (inst/sec) elapsed = 0:0:03:03 / Tue May 12 16:49:05 2015
GPGPU-Sim PTX: 9600000 instructions simulated : ctaid=(4,0,0) tid=(0,6,0)
GPGPU-Sim uArch: cycles simulated: 49500  inst.: 9419090 (ipc=190.3) sim_rate=50914 (inst/sec) elapsed = 0:0:03:05 / Tue May 12 16:49:07 2015
GPGPU-Sim PTX: 9700000 instructions simulated : ctaid=(6,3,0) tid=(10,3,0)
GPGPU-Sim uArch: cycles simulated: 50000  inst.: 9528959 (ipc=190.6) sim_rate=50685 (inst/sec) elapsed = 0:0:03:08 / Tue May 12 16:49:10 2015
GPGPU-Sim PTX: 9800000 instructions simulated : ctaid=(12,3,0) tid=(1,2,0)
GPGPU-Sim uArch: cycles simulated: 50500  inst.: 9619425 (ipc=190.5) sim_rate=50628 (inst/sec) elapsed = 0:0:03:10 / Tue May 12 16:49:12 2015
GPGPU-Sim PTX: 9900000 instructions simulated : ctaid=(9,2,0) tid=(0,5,0)
GPGPU-Sim uArch: Shader 0 finished CTA #0 (50609,0), 1 CTAs running
GPGPU-Sim uArch: core:  0, cta: 0 initialized @(50610,0)
GPGPU-Sim uArch: Shader 8 finished CTA #0 (50613,0), 1 CTAs running
GPGPU-Sim uArch: core:  8, cta: 0 initialized @(50614,0)
GPGPU-Sim uArch: Shader 2 finished CTA #0 (50782,0), 1 CTAs running
GPGPU-Sim uArch: core:  2, cta: 0 initialized @(50783,0)
GPGPU-Sim uArch: Shader 2 finished CTA #1 (50814,0), 1 CTAs running
GPGPU-Sim uArch: core:  2, cta: 1 initialized @(50815,0)
GPGPU-Sim uArch: Shader 5 finished CTA #0 (50906,0), 1 CTAs running
GPGPU-Sim uArch: core:  5, cta: 0 initialized @(50907,0)
GPGPU-Sim uArch: cycles simulated: 51000  inst.: 9700440 (ipc=190.2) sim_rate=50261 (inst/sec) elapsed = 0:0:03:13 / Tue May 12 16:49:15 2015
GPGPU-Sim uArch: Shader 3 finished CTA #0 (51048,0), 1 CTAs running
GPGPU-Sim uArch: core:  3, cta: 0 initialized @(51049,0)
GPGPU-Sim uArch: Shader 1 finished CTA #1 (51186,0), 1 CTAs running
GPGPU-Sim uArch: core:  1, cta: 1 initialized @(51187,0)
GPGPU-Sim PTX: 10000000 instructions simulated : ctaid=(13,3,0) tid=(1,6,0)
GPGPU-Sim uArch: Shader 11 finished CTA #0 (51195,0), 1 CTAs running
GPGPU-Sim uArch: core: 11, cta: 0 initialized @(51196,0)
GPGPU-Sim uArch: Shader 12 finished CTA #0 (51203,0), 1 CTAs running
GPGPU-Sim uArch: core: 12, cta: 0 initialized @(51204,0)
GPGPU-Sim uArch: Shader 11 finished CTA #1 (51227,0), 1 CTAs running
GPGPU-Sim uArch: core: 11, cta: 1 initialized @(51228,0)
GPGPU-Sim uArch: cycles simulated: 51500  inst.: 9782010 (ipc=189.9) sim_rate=50164 (inst/sec) elapsed = 0:0:03:15 / Tue May 12 16:49:17 2015
GPGPU-Sim PTX: 10100000 instructions simulated : ctaid=(11,3,0) tid=(0,5,0)
GPGPU-Sim uArch: Shader 14 finished CTA #0 (51818,0), 1 CTAs running
GPGPU-Sim uArch: core: 14, cta: 0 initialized @(51819,0)
GPGPU-Sim uArch: cycles simulated: 52000  inst.: 9898904 (ipc=190.4) sim_rate=49994 (inst/sec) elapsed = 0:0:03:18 / Tue May 12 16:49:20 2015
GPGPU-Sim PTX: 10200000 instructions simulated : ctaid=(3,4,0) tid=(13,6,0)
GPGPU-Sim uArch: cycles simulated: 52500  inst.: 10008994 (ipc=190.6) sim_rate=49795 (inst/sec) elapsed = 0:0:03:21 / Tue May 12 16:49:23 2015
GPGPU-Sim PTX: 10300000 instructions simulated : ctaid=(1,4,0) tid=(14,3,0)
GPGPU-Sim PTX: 10400000 instructions simulated : ctaid=(5,3,0) tid=(6,7,0)
GPGPU-Sim uArch: cycles simulated: 53000  inst.: 10124834 (ipc=191.0) sim_rate=49631 (inst/sec) elapsed = 0:0:03:24 / Tue May 12 16:49:26 2015
GPGPU-Sim PTX: 10500000 instructions simulated : ctaid=(10,3,0) tid=(4,2,0)
GPGPU-Sim uArch: cycles simulated: 53500  inst.: 10245617 (ipc=191.5) sim_rate=49736 (inst/sec) elapsed = 0:0:03:26 / Tue May 12 16:49:28 2015
GPGPU-Sim PTX: 10600000 instructions simulated : ctaid=(0,4,0) tid=(12,1,0)
GPGPU-Sim uArch: cycles simulated: 54000  inst.: 10386104 (ipc=192.3) sim_rate=49694 (inst/sec) elapsed = 0:0:03:29 / Tue May 12 16:49:31 2015
GPGPU-Sim PTX: 10700000 instructions simulated : ctaid=(2,4,0) tid=(9,4,0)
GPGPU-Sim uArch: Shader 0 finished CTA #1 (54174,0), 1 CTAs running
GPGPU-Sim uArch: core:  0, cta: 1 initialized @(54175,0)
GPGPU-Sim PTX: 10800000 instructions simulated : ctaid=(6,4,0) tid=(6,1,0)
GPGPU-Sim uArch: cycles simulated: 54500  inst.: 10555397 (ipc=193.7) sim_rate=49789 (inst/sec) elapsed = 0:0:03:32 / Tue May 12 16:49:34 2015
GPGPU-Sim PTX: 10900000 instructions simulated : ctaid=(12,3,0) tid=(8,1,0)
GPGPU-Sim PTX: 11000000 instructions simulated : ctaid=(5,4,0) tid=(14,1,0)
GPGPU-Sim uArch: cycles simulated: 55000  inst.: 10716941 (ipc=194.9) sim_rate=49846 (inst/sec) elapsed = 0:0:03:35 / Tue May 12 16:49:37 2015
GPGPU-Sim uArch: Shader 10 finished CTA #0 (55014,0), 1 CTAs running
GPGPU-Sim uArch: core: 10, cta: 0 initialized @(55015,0)
GPGPU-Sim PTX: 11100000 instructions simulated : ctaid=(10,3,0) tid=(4,3,0)
GPGPU-Sim uArch: cycles simulated: 55500  inst.: 10817074 (ipc=194.9) sim_rate=49848 (inst/sec) elapsed = 0:0:03:37 / Tue May 12 16:49:39 2015
[...]
traffic_breakdown_memtocore[GLOBAL_ACC_W] = 65536 {8:8192,}
traffic_breakdown_memtocore[INST_ACC_R] = 3029944 {136:22279,}
traffic_breakdown_memtocore[LOCAL_ACC_R] = 528904 {136:3889,}
traffic_breakdown_memtocore[LOCAL_ACC_W] = 233768 {8:29221,}
maxmrqlatency = 358 
maxdqlatency = 0 
maxmflatency = 1784 
averagemflatency = 234 
max_icnt2mem_latency = 963 
max_icnt2sh_latency = 267164 
mrq_lat_table:2999 	137 	490 	1197 	1114 	834 	1191 	2193 	59 	0 	0 	0 	0 	0 	0 	0 	0 	0 	0 	0 	0 	0 	0 	0 	0 	0 	0 	0 	0 	0 	0 	0 	
dq_lat_table:0 	0 	0 	0 	0 	0 	0 	0 	0 	0 	0 	0 	0 	0 	0 	0 	0 	0 	0 	0 	0 	0 	0 	0 	0 	0 	0 	0 	0 	0 	0 	0 	
mf_lat_table:0 	0 	0 	0 	0 	0 	0 	39172 	3672 	1301 	1183 	0 	0 	0 	0 	0 	0 	0 	0 	0 	0 	0 	0 	0 	0 	0 	0 	0 	0 	0 	0 	0 	
icnt2mem_lat_table:0 	0 	0 	28598 	14106 	11360 	12658 	1288 	1748 	332 	0 	0 	0 	0 	0 	0 	0 	0 	0 	0 	0 	0 	0 	0 	
icnt2sh_lat_table:0 	0 	0 	2155 	3559 	2130 	71 	0 	0 	132 	352 	858 	1298 	960 	2239 	4291 	8270 	18184 	829 	0 	0 	0 	0 	0 	
mf_lat_pw_table:0 	0 	0 	0 	0 	0 	0 	485 	13 	7 	5 	0 	0 	0 	0 	0 	0 	0 	0 	0 	0 	0 	0 	0 	0 	0 	0 	0 	0 	0 	0 	0 	
maximum concurrent accesses to same row:
dram[0]:        56         0        64         0        64         0        82         0        65         0        70         0        64         0        64         0 
dram[1]:        64         0        64         0        64         0        85         0        71         0        73         0        65         0        64         0 
dram[2]:         1        64         0        64         0        64         0        81         0        80         0        68         0        64         0        64 
dram[3]:         0        64         0        64         0        64         0        90         0        74         0        64         0        64         0        64 
dram[4]:        64         0        65         0        64         0        83         0        77         0        70         0        67         0        64         0 
dram[5]:        64         0        64         0        64         0        87         0        79         0        70         0        67         0        64         0 
maximum service time to same row:
dram[0]:    140679      8347    245679         0    152717      5857    228679     34391     85260     93279    129280    135438    202118    216376    246097    251437 
dram[1]:    156754     10219    246748         0    152506      5779    229818     36115    115943     96222    132039    138479    205722    217444    247115    252422 
dram[2]:      5777    167755         0    245313      5865     83708     34394    228663     93282    115173    135441    129126    216379    202044    251441    245732 
dram[3]:      6758    128883         0    246232      5811    122147     36119    229819     96226    120084    138482    131760    217449    205499    252426    246645 
dram[4]:     90104     12288    251389         0     94996      5832    228691     34399     98081     93287    129723    135446    202840    216384    246699    251444 
dram[5]:    172610       232    246955         0    116619      5804    230379     36122    156788     96229    132329    138487    206289    217453    247616    252431 
average row accesses per activate:
dram[0]: 12.333333  4.000000 34.750000      -nan 14.833333 20.000000 28.000000 76.000000 13.500000 77.000000 45.333332 70.000000 35.250000 76.000000 34.250000 72.000000 
dram[1]: 16.400000  4.000000 20.714285      -nan 12.066667 25.000000 20.454546 70.000000 15.666667 74.000000 47.666668 77.000000 28.799999 82.000000 16.000000 66.000000 
dram[2]:  1.666667 19.125000      -nan 20.857143 20.000000 14.666667 77.000000 31.428572 77.000000 16.909090 69.000000 44.333332 78.000000 23.666666 72.000000 22.833334 
dram[3]:  4.000000 15.100000      -nan 27.200001 25.000000 14.666667 68.000000 32.714287 76.000000 18.100000 76.000000 68.500000 80.000000 36.250000 68.000000 20.285715 
dram[4]: 15.400000  4.000000 28.200001      -nan 21.250000 24.000000 27.625000 76.000000 18.700001 78.000000 46.333332 70.000000 24.000000 78.000000 17.500000 72.000000 
dram[5]: 32.599998  4.000000 45.333332      -nan 14.583333 30.000000 28.625000 70.000000 35.799999 74.000000 45.666668 76.000000 12.500000 78.000000 13.000000 68.000000 
average row locality = 10214/411 = 24.851582
number of total memory accesses made:
dram[0]:         0         0         0         0         0         0         0         0         0         0         0         0         0         0         0         0 
dram[1]:         0         0         0         0         0         0         0         0         0         0         0         0         0         0         0         0 
dram[2]:         0         0         0         0         0         0         0         0         0         0         0         0         0         0         0         0 
dram[3]:         0         0         0         0         0         0         0         0         0         0         0         0         0         0         0         0 
dram[4]:         0         0         0         0         0         0         0         0         0         0         0         0         0         0         0         0 
dram[5]:         0         0         0         0         0         0         0         0         0         0         0         0         0         0         0         0 
total accesses: 0
min_bank_accesses = 0!
min_chip_accesses = 0!
number of total read accesses:
dram[0]:        71         4        65         0        78        10        96        32        83        32        64        32        64        32        64        32 
dram[1]:        77         4        67         0        80        10        96        32        82        32        65        32        65        32        64        32 
dram[2]:         5        73         0        66        10        78        32        96        32        81        32        64        32        64        32        64 
dram[3]:         4        71         0        64        10        77        32        96        32        81        32        64        32        64        32        64 
dram[4]:        72         4        66         0        77        12        96        32        83        32        64        32        65        32        64        32 
dram[5]:        75         4        65         0        79        12        97        32        81        32        64        32        66        32        64        32 
total reads: 4575
min_bank_accesses = 0!
chip skew: 770/755 = 1.02
number of total write accesses:
dram[0]:        77         0        74         0       100        10       128        44       106        45        72        38        77        44        73        40 
dram[1]:        87         0        78         0       101        15       129        38       106        42        78        45        79        50        80        34 
dram[2]:         0        80         0        80        10        98        45       124        45       105        37        69        46        78        40        73 
dram[3]:         0        80         0        72        15        99        36       133        44       100        44        73        48        81        36        78 
dram[4]:        82         0        75         0        93        12       125        44       104        46        75        38        79        46        76        40 
dram[5]:        88         0        71         0        96        18       132        38        98        42        73        44        84        46        79        36 
total reads: 5639
min_bank_accesses = 0!
chip skew: 962/928 = 1.04
average mf latency per bank:
dram[0]:       1443         0      1476    none        1378       685      1327       446      1027       453      1194       489      1143       464       966       499
dram[1]:       1255         0      1321    none        1344       548      1271       497      1014       473      1092       450      1138       430       899       537
dram[2]:        959      1228    none        1416       786      1395       442      1394       454      1089       494      1219       454      1168       498       963
dram[3]:          0      1218    none        1563       603      1423       510      1316       462      1122       456      1224       442      1139       531       946
dram[4]:       1141         0      1324    none        1390       658      1313       445      1118       448      1108       487      1086       453       982       502
dram[5]:       1066         0      1415    none        1345       571      1258       499      1177       475      1154       453       970       449       933       534
maximum mf latency per bank:
dram[0]:       1168         0      1366         0      1532       604      1475       299      1161       300      1270       300      1165       304      1215       360
dram[1]:       1088         0      1336         0      1543       552      1346       290      1336       304      1176       338      1096       328      1098       309
dram[2]:        754      1270         0      1261       838      1541       299      1566       306      1458       304      1453       307      1441       339      1311
dram[3]:          0      1292         0      1293       622      1634       301      1640       304      1566       340      1446       336      1493       324      1335
dram[4]:       1184         0      1107         0      1512       637      1636       299      1297       307      1182       287      1254       299      1181       352
dram[5]:       1258         0      1112         0      1630       611      1784       304      1384       306      1242       308      1190       341      1207       336

Number of Memory Banks Accessed per Memory Operation per Warp (from 0):
0	0	0	0	0	0	0	0	0	0	0	0	0	0	0	0	0	0	0	0	0	0	0	0	0	0	0	0	0	0	0	0	0	0	0	0	0	0	0	0	0	0	0	0	0	0	0	0	0	0	0	0	0	0	0	0	0	0	0	0	0	0	0	0	0	0	0	0	0	0	0	0	0	0	0	0	0	0	0	0	0	0	0	0	0	0	0	0	0	0	0	0	0	0	0	0	
Average # of Memory Banks Accessed per Memory Operation per Warp=-nan

position of mrq chosen
0	0	0	0	0	0	0	0	0	0	0	0	0	0	0	0	

average position of mrq chosen = -nan
Memory Partition 0: 
Cache L2_bank_000:
MSHR contents

Cache L2_bank_001:
MSHR contents

In Dram Latency Queue (total = 0): 
DRAM[0]: 16 bks, busW=4 BL=8 CL=12, tRRD=2 tCCD=6, tRCD=12 tRAS=28 tRP=12 tRC=40
n_cmd=352657 n_nop=349608 n_act=68 n_pre=53 n_req=1687 n_rd=1518 n_write=1410 bw_util=0.01661
n_activity=18577 dram_eff=0.3152
bk0: 142a 349825i bk1: 8a 352619i bk2: 130a 349795i bk3: 0a 352655i bk4: 156a 349060i bk5: 20a 352143i bk6: 192a 348901i bk7: 64a 351896i bk8: 166a 349368i bk9: 64a 351875i bk10: 128a 350567i bk11: 64a 351946i bk12: 128a 350308i bk13: 64a 351899i bk14: 128a 350266i bk15: 64a 351913i 
dram_util_bins: 0 0 0 0 0 0 0 0 0 0
dram_eff_bins: 0 0 0 0 0 0 0 0 0 0
mrqq: max=16 avg=0.367935
Memory Partition 1: 
Cache L2_bank_002:
MSHR contents

Cache L2_bank_003:
MSHR contents

In Dram Latency Queue (total = 0): 
DRAM[1]: 16 bks, busW=4 BL=8 CL=12, tRRD=2 tCCD=6, tRCD=12 tRAS=28 tRP=12 tRC=40
n_cmd=352657 n_nop=349508 n_act=79 n_pre=64 n_req=1732 n_rd=1540 n_write=1466 bw_util=0.01705
n_activity=19169 dram_eff=0.3136
bk0: 154a 349708i bk1: 8a 352630i bk2: 134a 349670i bk3: 0a 352661i bk4: 160a 349004i bk5: 20a 352142i bk6: 192a 348810i bk7: 64a 351940i bk8: 164a 349520i bk9: 64a 351890i bk10: 130a 350548i bk11: 64a 351881i bk12: 130a 350271i bk13: 64a 351883i bk14: 128a 350292i bk15: 64a 351913i 
dram_util_bins: 0 0 0 0 0 0 0 0 0 0
dram_eff_bins: 0 0 0 0 0 0 0 0 0 0
mrqq: max=16 avg=0.372977
Memory Partition 2: 
Cache L2_bank_004:
MSHR contents

Cache L2_bank_005:
MSHR contents

In Dram Latency Queue (total = 0): 
DRAM[2]: 16 bks, busW=4 BL=8 CL=12, tRRD=2 tCCD=6, tRCD=12 tRAS=28 tRP=12 tRC=40
n_cmd=352657 n_nop=349598 n_act=69 n_pre=54 n_req=1691 n_rd=1522 n_write=1414 bw_util=0.01665
n_activity=19015 dram_eff=0.3088
bk0: 10a 352537i bk1: 146a 349873i bk2: 0a 352655i bk3: 132a 349768i bk4: 20a 352202i bk5: 156a 349325i bk6: 64a 351877i bk7: 192a 349229i bk8: 64a 351896i bk9: 162a 349620i bk10: 64a 351932i bk11: 128a 350445i bk12: 64a 351887i bk13: 128a 350259i bk14: 64a 351907i bk15: 128a 350413i 
dram_util_bins: 0 0 0 0 0 0 0 0 0 0
dram_eff_bins: 0 0 0 0 0 0 0 0 0 0
mrqq: max=16 avg=0.396561
Memory Partition 3: 
Cache L2_bank_006:
MSHR contents

Cache L2_bank_007:
MSHR contents

In Dram Latency Queue (total = 0): 
DRAM[3]: 16 bks, busW=4 BL=8 CL=12, tRRD=2 tCCD=6, tRCD=12 tRAS=28 tRP=12 tRC=40
n_cmd=352657 n_nop=349621 n_act=64 n_pre=49 n_req=1694 n_rd=1510 n_write=1413 bw_util=0.01658
n_activity=18668 dram_eff=0.3132
bk0: 8a 352603i bk1: 142a 349841i bk2: 0a 352654i bk3: 128a 349860i bk4: 20a 352165i bk5: 154a 349318i bk6: 64a 351946i bk7: 192a 349130i bk8: 64a 351894i bk9: 162a 349646i bk10: 64a 351870i bk11: 128a 350437i bk12: 64a 351842i bk13: 128a 350315i bk14: 64a 351917i bk15: 128a 350397i 
dram_util_bins: 0 0 0 0 0 0 0 0 0 0
dram_eff_bins: 0 0 0 0 0 0 0 0 0 0
mrqq: max=16 avg=0.395654
Memory Partition 4: 
Cache L2_bank_008:
MSHR contents

Cache L2_bank_009:
MSHR contents

In Dram Latency Queue (total = 0): 
DRAM[4]: 16 bks, busW=4 BL=8 CL=12, tRRD=2 tCCD=6, tRCD=12 tRAS=28 tRP=12 tRC=40
n_cmd=352657 n_nop=349594 n_act=65 n_pre=50 n_req=1698 n_rd=1526 n_write=1422 bw_util=0.01672
n_activity=18429 dram_eff=0.3199
bk0: 144a 349616i bk1: 8a 352626i bk2: 132a 349569i bk3: 0a 352653i bk4: 154a 349305i bk5: 24a 352168i bk6: 192a 348837i bk7: 64a 351894i bk8: 166a 349227i bk9: 64a 351881i bk10: 128a 350253i bk11: 64a 351943i bk12: 130a 350107i bk13: 64a 351893i bk14: 128a 350089i bk15: 64a 351904i 
dram_util_bins: 0 0 0 0 0 0 0 0 0 0
dram_eff_bins: 0 0 0 0 0 0 0 0 0 0
mrqq: max=16 avg=0.358533
Memory Partition 5: 
Cache L2_bank_010:
MSHR contents

Cache L2_bank_011:
MSHR contents

In Dram Latency Queue (total = 0): 
DRAM[5]: 16 bks, busW=4 BL=8 CL=12, tRRD=2 tCCD=6, tRCD=12 tRAS=28 tRP=12 tRC=40
n_cmd=352657 n_nop=349566 n_act=66 n_pre=51 n_req=1712 n_rd=1534 n_write=1440 bw_util=0.01687
n_activity=18646 dram_eff=0.319
bk0: 150a 349464i bk1: 8a 352622i bk2: 130a 349643i bk3: 0a 352657i bk4: 158a 349169i bk5: 24a 352136i bk6: 194a 348588i bk7: 64a 351948i bk8: 162a 349392i bk9: 64a 351910i bk10: 128a 350271i bk11: 64a 351899i bk12: 132a 349975i bk13: 64a 351896i bk14: 128a 349966i bk15: 64a 351919i 
dram_util_bins: 0 0 0 0 0 0 0 0 0 0
dram_eff_bins: 0 0 0 0 0 0 0 0 0 0
mrqq: max=16 avg=0.353091

========= L2 cache stats =========
L2_cache_bank[0]: Access = 8731, Miss = 585, Miss_rate = 0.067, Pending_hits = 70, Reservation_fails = 797
L2_cache_bank[1]: Access = 3211, Miss = 174, Miss_rate = 0.054, Pending_hits = 63, Reservation_fails = 372
L2_cache_bank[2]: Access = 8777, Miss = 596, Miss_rate = 0.068, Pending_hits = 87, Reservation_fails = 563
L2_cache_bank[3]: Access = 2863, Miss = 174, Miss_rate = 0.061, Pending_hits = 66, Reservation_fails = 371
L2_cache_bank[4]: Access = 2612, Miss = 175, Miss_rate = 0.067, Pending_hits = 68, Reservation_fails = 566
L2_cache_bank[5]: Access = 8678, Miss = 586, Miss_rate = 0.068, Pending_hits = 67, Reservation_fails = 440
L2_cache_bank[6]: Access = 2978, Miss = 174, Miss_rate = 0.058, Pending_hits = 65, Reservation_fails = 497
L2_cache_bank[7]: Access = 8805, Miss = 581, Miss_rate = 0.066, Pending_hits = 84, Reservation_fails = 452
L2_cache_bank[8]: Access = 9056, Miss = 587, Miss_rate = 0.065, Pending_hits = 66, Reservation_fails = 519
L2_cache_bank[9]: Access = 2418, Miss = 176, Miss_rate = 0.073, Pending_hits = 63, Reservation_fails = 282
L2_cache_bank[10]: Access = 9277, Miss = 591, Miss_rate = 0.064, Pending_hits = 73, Reservation_fails = 775
L2_cache_bank[11]: Access = 2684, Miss = 176, Miss_rate = 0.066, Pending_hits = 64, Reservation_fails = 327
L2_total_cache_accesses = 70090
L2_total_cache_misses = 4575
L2_total_cache_miss_rate = 0.0653
L2_total_cache_pending_hits = 836
L2_total_cache_reservation_fails = 5961
L2_total_cache_breakdown:
	L2_cache_stats_breakdown[GLOBAL_ACC_R][HIT] = 3988
	L2_cache_stats_breakdown[GLOBAL_ACC_R][HIT_RESERVED] = 6
	L2_cache_stats_breakdown[GLOBAL_ACC_R][MISS] = 2
	L2_cache_stats_breakdown[GLOBAL_ACC_R][RESERVATION_FAIL] = 200
	L2_cache_stats_breakdown[LOCAL_ACC_R][HIT] = 3871
	L2_cache_stats_breakdown[LOCAL_ACC_R][HIT_RESERVED] = 18
	L2_cache_stats_breakdown[CONST_ACC_R][HIT] = 22
	L2_cache_stats_breakdown[CONST_ACC_R][HIT_RESERVED] = 6
	L2_cache_stats_breakdown[CONST_ACC_R][MISS] = 2
	L2_cache_stats_breakdown[CONST_ACC_R][RESERVATION_FAIL] = 133
	L2_cache_stats_breakdown[GLOBAL_ACC_W][HIT] = 5479
	L2_cache_stats_breakdown[GLOBAL_ACC_W][HIT_RESERVED] = 665
	L2_cache_stats_breakdown[GLOBAL_ACC_W][MISS] = 2048
	L2_cache_stats_breakdown[GLOBAL_ACC_W][RESERVATION_FAIL] = 9
	L2_cache_stats_breakdown[LOCAL_ACC_W][HIT] = 26821
	L2_cache_stats_breakdown[LOCAL_ACC_W][MISS] = 2400
	L2_cache_stats_breakdown[LOCAL_ACC_W][RESERVATION_FAIL] = 864
	L2_cache_stats_breakdown[L1_WRBK_ACC][HIT] = 2408
	L2_cache_stats_breakdown[L1_WRBK_ACC][MISS] = 75
	L2_cache_stats_breakdown[INST_ACC_R][HIT] = 22090
	L2_cache_stats_breakdown[INST_ACC_R][HIT_RESERVED] = 141
	L2_cache_stats_breakdown[INST_ACC_R][MISS] = 48
	L2_cache_stats_breakdown[INST_ACC_R][RESERVATION_FAIL] = 4755
L2_cache_data_port_util = 0.076
L2_cache_fill_port_util = 0.006

icnt_total_pkts_mem_to_simt=188323
icnt_total_pkts_simt_to_mem=210755
LD_mem_lat_dist  0 0 0 0 0 0 0 0 0 0 0 0 0 0 0 0 0 0 0 0 0 0 0 0 0 0 0
ST_mem_lat_dist  0 0 0 0 0 0 0 0 0 0 0 0 0 0 0 0 0 0 0 0 0 0 0 0 0 0 0
----------------------------Interconnect-DETAILS--------------------------------
Class 0:
Packet latency average = 14.8845
	minimum = 6
	maximum = 495
Network latency average = 12.1128
	minimum = 6
	maximum = 472
Slowest packet = 566
Flit latency average = 11.2445
	minimum = 6
	maximum = 468
Slowest flit = 3574
Fragmentation average = 0.0732914
	minimum = 0
	maximum = 372
Injected packet rate average = 0.0190889
	minimum = 0.00905059 (at node 24)
	maximum = 0.033163 (at node 25)
Accepted packet rate average = 0.0190889
	minimum = 0.00905059 (at node 24)
	maximum = 0.0347239 (at node 25)
Injected flit rate average = 0.0553241
	minimum = 0.0349522 (at node 24)
	maximum = 0.0817472 (at node 25)
Accepted flit rate average= 0.0553241
	minimum = 0.014201 (at node 24)
	maximum = 0.118653 (at node 25)
Injected packet length average = 2.89823
Accepted packet length average = 2.89823
Total in-flight flits = 0 (0 measured)
====== Overall Traffic Statistics ======
====== Traffic class 0 ======
Packet latency average = 14.8845 (1 samples)
	minimum = 6 (1 samples)
	maximum = 495 (1 samples)
Network latency average = 12.1128 (1 samples)
	minimum = 6 (1 samples)
	maximum = 472 (1 samples)
Flit latency average = 11.2445 (1 samples)
	minimum = 6 (1 samples)
	maximum = 468 (1 samples)
Fragmentation average = 0.0732914 (1 samples)
	minimum = 0 (1 samples)
	maximum = 372 (1 samples)
Injected packet rate average = 0.0190889 (1 samples)
	minimum = 0.00905059 (1 samples)
	maximum = 0.033163 (1 samples)
Accepted packet rate average = 0.0190889 (1 samples)
	minimum = 0.00905059 (1 samples)
	maximum = 0.0347239 (1 samples)
Injected flit rate average = 0.0553241 (1 samples)
	minimum = 0.0349522 (1 samples)
	maximum = 0.0817472 (1 samples)
Accepted flit rate average = 0.0553241 (1 samples)
	minimum = 0.014201 (1 samples)
	maximum = 0.118653 (1 samples)
Injected packet size average = 2.89823 (1 samples)
Accepted packet size average = 2.89823 (1 samples)
Hops average = 1 (1 samples)
----------------------------END-of-Interconnect-DETAILS-------------------------


gpgpu_simulation_time = 0 days, 0 hrs, 19 min, 41 sec (1181 sec)
gpgpu_simulation_rate = 53075 (inst/sec)
gpgpu_simulation_rate = 226 (cycle/sec)
GPGPU-Sim: synchronize waiting for inactive GPU simulation
GPGPU-Sim API: Stream Manager State
GPGPU-Sim: detected inactive GPU simulation thread

checksum=75ef40cb5b8e
Kernel Time: 1180149.000000 
