

        *** GPGPU-Sim Simulator Version 3.2.2  [build 0] ***


GPGPU-Sim PTX: simulation mode 0 (can change with PTX_SIM_MODE_FUNC environment variable:
               1=functional simulation only, 0=detailed performance simulator)
GPGPU-Sim: Configuration options:

-network_mode                           1 # Interconnection network mode
-inter_config_file   config_fermi_islip.icnt # Interconnection network config file
-gpgpu_ptx_use_cuobjdump                    1 # Use cuobjdump to extract ptx and sass from binaries
-gpgpu_experimental_lib_support                    0 # Try to extract code from cuda libraries [Broken because of unknown cudaGetExportTable]
-gpgpu_ptx_convert_to_ptxplus                    0 # Convert SASS (native ISA) to ptxplus and run ptxplus
-gpgpu_ptx_force_max_capability                   20 # Force maximum compute capability
-gpgpu_ptx_inst_debug_to_file                    0 # Dump executed instructions' debug information to file
-gpgpu_ptx_inst_debug_file       inst_debug.txt # Executed instructions' debug output file
-gpgpu_ptx_inst_debug_thread_uid                    1 # Thread UID for executed instructions' debug output
-gpgpu_simd_model                       1 # 1 = post-dominator
-gpgpu_shader_core_pipeline              1536:32 # shader core pipeline config, i.e., {<nthread>:<warpsize>}
-gpgpu_tex_cache:l1  4:128:24,L:R:m:N:L,F:128:4,128:2 # per-shader L1 texture cache  (READ-ONLY) config  {<nsets>:<bsize>:<assoc>,<rep>:<wr>:<alloc>:<wr_alloc>,<mshr>:<N>:<merge>,<mq>:<rf>}
-gpgpu_const_cache:l1 64:64:2,L:R:f:N:L,A:2:32,4 # per-shader L1 constant memory cache  (READ-ONLY) config  {<nsets>:<bsize>:<assoc>,<rep>:<wr>:<alloc>:<wr_alloc>,<mshr>:<N>:<merge>,<mq>} 
-gpgpu_cache:il1     4:128:4,L:R:f:N:L,A:2:32,4 # shader L1 instruction cache config  {<nsets>:<bsize>:<assoc>,<rep>:<wr>:<alloc>:<wr_alloc>,<mshr>:<N>:<merge>,<mq>} 
-gpgpu_cache:dl1     32:128:4,L:L:m:N:H,A:32:8,8 # per-shader L1 data cache config  {<nsets>:<bsize>:<assoc>,<rep>:<wr>:<alloc>:<wr_alloc>,<mshr>:<N>:<merge>,<mq> | none}
-gpgpu_cache:dl1PrefL1                 none # per-shader L1 data cache config  {<nsets>:<bsize>:<assoc>,<rep>:<wr>:<alloc>:<wr_alloc>,<mshr>:<N>:<merge>,<mq> | none}
-gpgpu_cache:dl1PreShared                 none # per-shader L1 data cache config  {<nsets>:<bsize>:<assoc>,<rep>:<wr>:<alloc>:<wr_alloc>,<mshr>:<N>:<merge>,<mq> | none}
-gmem_skip_L1D                          0 # global memory access skip L1D cache (implements -Xptxas -dlcm=cg, default=no skip)
-gpgpu_perfect_mem                      0 # enable perfect memory mode (no cache miss)
-n_regfile_gating_group                    4 # group of lanes that should be read/written together)
-gpgpu_clock_gated_reg_file                    0 # enable clock gated reg file for power calculations
-gpgpu_clock_gated_lanes                    0 # enable clock gated lanes for power calculations
-gpgpu_shader_registers                32768 # Number of registers per shader core. Limits number of concurrent CTAs. (default 8192)
-gpgpu_shader_cta                       8 # Maximum number of concurrent CTAs in shader (default 8)
-gpgpu_num_cta_barriers                   16 # Maximum number of named barriers per CTA (default 16)
-gpgpu_n_clusters                      15 # number of processing clusters
-gpgpu_n_cores_per_cluster                    1 # number of simd cores per cluster
-gpgpu_n_cluster_ejection_buffer_size                    8 # number of packets in ejection buffer
-gpgpu_n_ldst_response_buffer_size                    2 # number of response packets in ld/st unit ejection buffer
-gpgpu_shmem_size                   16384 # Size of shared memory per shader core (default 16kB)
-gpgpu_shmem_size                   49152 # Size of shared memory per shader core (default 16kB)
-gpgpu_shmem_size_PrefL1                16384 # Size of shared memory per shader core (default 16kB)
-gpgpu_shmem_size_PrefShared                16384 # Size of shared memory per shader core (default 16kB)
-gpgpu_shmem_num_banks                   32 # Number of banks in the shared memory in each shader core (default 16)
-gpgpu_shmem_limited_broadcast                    0 # Limit shared memory to do one broadcast per cycle (default on)
-gpgpu_shmem_warp_parts                    1 # Number of portions a warp is divided into for shared memory bank conflict check 
-gpgpu_warpdistro_shader                   -1 # Specify which shader core to collect the warp size distribution from
-gpgpu_warp_issue_shader                    0 # Specify which shader core to collect the warp issue distribution from
-gpgpu_local_mem_map                    1 # Mapping from local memory space address to simulated GPU physical address space (default = enabled)
-gpgpu_num_reg_banks                   16 # Number of register banks (default = 8)
-gpgpu_reg_bank_use_warp_id                    0 # Use warp ID in mapping registers to banks (default = off)
-gpgpu_operand_collector_num_units_sp                    6 # number of collector units (default = 4)
-gpgpu_operand_collector_num_units_sfu                    8 # number of collector units (default = 4)
-gpgpu_operand_collector_num_units_mem                    2 # number of collector units (default = 2)
-gpgpu_operand_collector_num_units_gen                    0 # number of collector units (default = 0)
-gpgpu_operand_collector_num_in_ports_sp                    2 # number of collector unit in ports (default = 1)
-gpgpu_operand_collector_num_in_ports_sfu                    1 # number of collector unit in ports (default = 1)
-gpgpu_operand_collector_num_in_ports_mem                    1 # number of collector unit in ports (default = 1)
-gpgpu_operand_collector_num_in_ports_gen                    0 # number of collector unit in ports (default = 0)
-gpgpu_operand_collector_num_out_ports_sp                    2 # number of collector unit in ports (default = 1)
-gpgpu_operand_collector_num_out_ports_sfu                    1 # number of collector unit in ports (default = 1)
-gpgpu_operand_collector_num_out_ports_mem                    1 # number of collector unit in ports (default = 1)
-gpgpu_operand_collector_num_out_ports_gen                    0 # number of collector unit in ports (default = 0)
-gpgpu_coalesce_arch                   13 # Coalescing arch (default = 13, anything else is off for now)
-gpgpu_num_sched_per_core                    1 # Number of warp schedulers per core
-gpgpu_max_insn_issue_per_warp                    1 # Max number of instructions that can be issued per warp in one cycle by scheduler
-gpgpu_simt_core_sim_order                    1 # Select the simulation order of cores in a cluster (0=Fix, 1=Round-Robin)
-gpgpu_pipeline_widths        2,1,1,2,1,1,2 # Pipeline widths ID_OC_SP,ID_OC_SFU,ID_OC_MEM,OC_EX_SP,OC_EX_SFU,OC_EX_MEM,EX_WB
-gpgpu_num_sp_units                     2 # Number of SP units (default=1)
-gpgpu_num_sfu_units                    1 # Number of SF units (default=1)
-gpgpu_num_mem_units                    1 # Number if ldst units (default=1) WARNING: not hooked up to anything
-gpgpu_scheduler     two_level_active:6:0:1 # Scheduler configuration: < lrr | gto | two_level_active > If two_level_active:<num_active_warps>:<inner_prioritization>:<outer_prioritization>For complete list of prioritization values see shader.h enum scheduler_prioritization_typeDefault: gto
-gpgpu_dram_scheduler                    1 # 0 = fifo, 1 = FR-FCFS (defaul)
-gpgpu_dram_partition_queues              8:8:8:8 # i2$:$2d:d2$:$2i
-l2_ideal                               0 # Use a ideal L2 cache that always hit
-gpgpu_cache:dl2     64:128:8,L:B:m:W:L,A:32:4,4:0,32 # unified banked L2 data cache config  {<nsets>:<bsize>:<assoc>,<rep>:<wr>:<alloc>:<wr_alloc>,<mshr>:<N>:<merge>,<mq>}
-gpgpu_cache:dl2_texture_only                    0 # L2 cache used for texture only
-gpgpu_n_mem                            6 # number of memory modules (e.g. memory controllers) in gpu
-gpgpu_n_sub_partition_per_mchannel                    2 # number of memory subpartition in each memory module
-gpgpu_n_mem_per_ctrlr                    2 # number of memory chips per memory controller
-gpgpu_memlatency_stat                   14 # track and display latency statistics 0x2 enables MC, 0x4 enables queue logs
-gpgpu_frfcfs_dram_sched_queue_size                   16 # 0 = unlimited (default); # entries per chip
-gpgpu_dram_return_queue_size                  116 # 0 = unlimited (default); # entries per chip
-gpgpu_dram_buswidth                    4 # default = 4 bytes (8 bytes per cycle at DDR)
-gpgpu_dram_burst_length                    8 # Burst length of each DRAM request (default = 4 data bus cycle)
-dram_data_command_freq_ratio                    4 # Frequency ratio between DRAM data bus and command bus (default = 2 times, i.e. DDR)
-gpgpu_dram_timing_opt nbk=16:CCD=2:RRD=6:RCD=12:RAS=28:RP=12:RC=40: CL=12:WL=4:CDLR=5:WR=12:nbkgrp=4:CCDL=3:RTPL=2 # DRAM timing parameters = {nbk:tCCD:tRRD:tRCD:tRAS:tRP:tRC:CL:WL:tCDLR:tWR:nbkgrp:tCCDL:tRTPL}
-rop_latency                          120 # ROP queue latency (default 85)
-dram_latency                         100 # DRAM latency (default 30)
-gpgpu_mem_addr_mapping dramid@8;00000000.00000000.00000000.00000000.0000RRRR.RRRRRRRR.BBBCCCCB.CCSSSSSS # mapping memory address to dram model {dramid@<start bit>;<memory address map>}
-gpgpu_mem_addr_test                    0 # run sweep test to check address mapping for aliased address
-gpgpu_mem_address_mask                    1 # 0 = old addressing mask, 1 = new addressing mask, 2 = new add. mask + flipped bank sel and chip sel bits
-gpuwattch_xml_file  gpuwattch_gtx480.xml # GPUWattch XML file
-power_simulation_enabled                    1 # Turn on power simulator (1=On, 0=Off)
-power_per_cycle_dump                    0 # Dump detailed power output each cycle
-power_trace_enabled                    0 # produce a file for the power trace (1=On, 0=Off)
-power_trace_zlevel                     6 # Compression level of the power trace output log (0=no comp, 9=highest)
-steady_power_levels_enabled                    0 # produce a file for the steady power levels (1=On, 0=Off)
-steady_state_definition                  8:4 # allowed deviation:number of samples
-gpgpu_max_cycle                        0 # terminates gpu simulation early (0 = no limit)
-gpgpu_max_insn                         0 # terminates gpu simulation early (0 = no limit)
-gpgpu_max_cta                          0 # terminates gpu simulation early (0 = no limit)
-gpgpu_runtime_stat                   500 # display runtime statistics such as dram utilization {<freq>:<flag>}
-liveness_message_freq                    1 # Minimum number of seconds between simulation liveness messages (0 = always print)
-gpgpu_flush_l1_cache                    0 # Flush L1 cache at the end of each kernel call
-gpgpu_flush_l2_cache                    0 # Flush L2 cache at the end of each kernel call
-gpgpu_deadlock_detect                    1 # Stop the simulation at deadlock (1=on (default), 0=off)
-gpgpu_ptx_instruction_classification                    0 # if enabled will classify ptx instruction types per kernel (Max 255 kernels now)
-gpgpu_ptx_sim_mode                     0 # Select between Performance (default) or Functional simulation (1)
-gpgpu_clock_domains 700.0:700.0:700.0:924.0 # Clock Domain Frequencies in MhZ {<Core Clock>:<ICNT Clock>:<L2 Clock>:<DRAM Clock>}
-gpgpu_max_concurrent_kernel                    8 # maximum kernels that can run concurrently on GPU
-gpgpu_cflog_interval                    0 # Interval between each snapshot in control flow logger
-visualizer_enabled                     0 # Turn on visualizer output (1=On, 0=Off)
-visualizer_outputfile                 NULL # Specifies the output log file for visualizer
-visualizer_zlevel                      6 # Compression level of the visualizer output log (0=no comp, 9=highest)
-trace_enabled                          0 # Turn on traces
-trace_components                    none # comma seperated list of traces to enable. Complete list found in trace_streams.tup. Default none
-trace_sampling_core                    0 # The core which is printed using CORE_DPRINTF. Default 0
-trace_sampling_memory_partition                   -1 # The memory partition which is printed using MEMPART_DPRINTF. Default -1 (i.e. all)
-enable_ptx_file_line_stats                    1 # Turn on PTX source line statistic profiling. (1 = On)
-ptx_line_stats_filename gpgpu_inst_stats.txt # Output file for PTX source line statistics.
-save_embedded_ptx                      0 # saves ptx files embedded in binary as <n>.ptx
-keep                                   0 # keep intermediate files created by GPGPU-Sim when interfacing with external programs
-gpgpu_ptx_save_converted_ptxplus                    0 # Saved converted ptxplus to a file
-ptx_opcode_latency_int         4,13,4,5,145 # Opcode latencies for integers <ADD,MAX,MUL,MAD,DIV>Default 1,1,19,25,145
-ptx_opcode_latency_fp          4,13,4,5,39 # Opcode latencies for single precision floating points <ADD,MAX,MUL,MAD,DIV>Default 1,1,1,1,30
-ptx_opcode_latency_dp         8,19,8,8,330 # Opcode latencies for double precision floating points <ADD,MAX,MUL,MAD,DIV>Default 8,8,8,8,335
-ptx_opcode_initiation_int            1,2,2,1,8 # Opcode initiation intervals for integers <ADD,MAX,MUL,MAD,DIV>Default 1,1,4,4,32
-ptx_opcode_initiation_fp            1,2,1,1,4 # Opcode initiation intervals for single precision floating points <ADD,MAX,MUL,MAD,DIV>Default 1,1,1,1,5
-ptx_opcode_initiation_dp         8,16,8,8,130 # Opcode initiation intervals for double precision floating points <ADD,MAX,MUL,MAD,DIV>Default 8,8,8,8,130
DRAM Timing Options:
nbk                                    16 # number of banks
CCD                                     2 # column to column delay
RRD                                     6 # minimal delay between activation of rows in different banks
RCD                                    12 # row to column delay
RAS                                    28 # time needed to activate row
RP                                     12 # time needed to precharge (deactivate) row
RC                                     40 # row cycle time
CDLR                                    5 # switching from write to read (changes tWTR)
WR                                     12 # last data-in to row precharge
CL                                     12 # CAS latency
WL                                      4 # Write latency
nbkgrp                                  4 # number of bank groups
CCDL                                    3 # column to column delay between accesses to different bank groups
RTPL                                    2 # read to precharge delay between accesses to different bank groups
Total number of memory sub partition = 12
addr_dec_mask[CHIP]  = 0000000000000000 	high:64 low:0
addr_dec_mask[BK]    = 000000000000e100 	high:16 low:8
addr_dec_mask[ROW]   = 000000000fff0000 	high:28 low:16
addr_dec_mask[COL]   = 0000000000001eff 	high:13 low:0
addr_dec_mask[BURST] = 000000000000003f 	high:6 low:0
sub_partition_id_mask = 0000000000000100
GPGPU-Sim uArch: clock freqs: 700000000.000000:700000000.000000:700000000.000000:924000000.000000
GPGPU-Sim uArch: clock periods: 0.00000000142857142857:0.00000000142857142857:0.00000000142857142857:0.00000000108225108225
*** Initializing Memory Statistics ***
GPGPU-Sim uArch: interconnect node map (shaderID+MemID to icntID)
GPGPU-Sim uArch: Memory nodes ID start from index: 15
GPGPU-Sim uArch:    0   1   2   3   4
GPGPU-Sim uArch:    5   6   7   8   9
GPGPU-Sim uArch:   10  11  12  13  14
GPGPU-Sim uArch:   15  16  17  18  19
GPGPU-Sim uArch:   20  21  22  23  24
GPGPU-Sim uArch:   25  26
GPGPU-Sim uArch: interconnect node reverse map (icntID to shaderID+MemID)
GPGPU-Sim uArch: Memory nodes start from ID: 15
GPGPU-Sim uArch:    0   1   2   3   4
GPGPU-Sim uArch:    5   6   7   8   9
GPGPU-Sim uArch:   10  11  12  13  14
GPGPU-Sim uArch:   15  16  17  18  19
GPGPU-Sim uArch:   20  21  22  23  24
GPGPU-Sim uArch:   25  26
62f7c84b053e7125f7dedfb6f8cd2ad7  /home/kishore/project_source/gpu_class_proj/gpgpusim-benchmarks-master/bin/release/RAY
GPGPU-Sim uArch: performance model initialization complete.
GPGPU-Sim PTX: __cudaRegisterFatBinary, fat_cubin_handle = 1, filename=rayTracing.cu
self exe links to: /home/kishore/project_source/gpu_class_proj/gpgpusim-benchmarks-master/bin/release/RAY
Running md5sum using "md5sum /home/kishore/project_source/gpu_class_proj/gpgpusim-benchmarks-master/bin/release/RAY "
Running cuobjdump using "$CUDA_INSTALL_PATH/bin/cuobjdump -ptx -elf -sass /home/kishore/project_source/gpu_class_proj/gpgpusim-benchmarks-master/bin/release/RAY > _cuobjdump_complete_output_yZySMx"
Parsing file _cuobjdump_complete_output_yZySMx
######### cuobjdump parser ########
## Adding new section PTX
Adding ptx filename: _cuobjdump_1.ptx
Adding arch: sm_10
Adding identifier: rayTracing.cu
## Adding new section ELF
Adding arch: sm_10
Adding identifier: rayTracing.cu
## Adding new section ELF
Adding arch: sm_20
Adding identifier: rayTracing.cu
## Adding new section PTX
Adding ptx filename: _cuobjdump_2.ptx
Adding arch: sm_20
Adding identifier: rayTracing.cu
Done parsing!!!
GPGPU-Sim PTX: __cudaRegisterFunction _Z6renderPjP4Nodejjff : hostFun 0x0x40a280, fat_cubin_handle = 1
GPGPU-Sim PTX: allocating stack frame region for .param "__cudaretf__Zmi6float3S_" from 0x0 to 0xc
GPGPU-Sim PTX: allocating stack frame region for .param "__cudaparmf1__Zmi6float3S_" from 0xc to 0x18
GPGPU-Sim PTX: allocating stack frame region for .param "__cudaparmf2__Zmi6float3S_" from 0x18 to 0x24
GPGPU-Sim PTX: allocating stack frame region for .param "__cudaretf__Z9normalize6float3" from 0x0 to 0xc
GPGPU-Sim PTX: allocating stack frame region for .param "__cudaparmf1__Z9normalize6float3" from 0xc to 0x18
GPGPU-Sim PTX: allocating stack frame region for .param "__cudaretf__Z18intersectionSphere5Rayon6float3f" from 0x0 to 0x4
GPGPU-Sim PTX: allocating stack frame region for .param "__cudaparmf1__Z18intersectionSphere5Rayon6float3f" from 0x4 to 0x1c
GPGPU-Sim PTX: allocating stack frame region for .param "__cudaparmf2__Z18intersectionSphere5Rayon6float3f" from 0x1c to 0x28
GPGPU-Sim PTX: allocating stack frame region for .param "__cudaparmf3__Z18intersectionSphere5Rayon6float3f" from 0x28 to 0x2c
GPGPU-Sim PTX: allocating stack frame region for .param "__cudaretf__Z16intersectionPlan5Rayon6float3S0_" from 0x0 to 0x4
GPGPU-Sim PTX: allocating stack frame region for .param "__cudaparmf1__Z16intersectionPlan5Rayon6float3S0_" from 0x4 to 0x1c
GPGPU-Sim PTX: allocating stack frame region for .param "__cudaparmf2__Z16intersectionPlan5Rayon6float3S0_" from 0x1c to 0x28
GPGPU-Sim PTX: allocating stack frame region for .param "__cudaparmf3__Z16intersectionPlan5Rayon6float3S0_" from 0x28 to 0x34
GPGPU-Sim PTX: allocating stack frame region for .param "__cudaretf__Z10getNormale6float3S_" from 0x0 to 0xc
GPGPU-Sim PTX: allocating stack frame region for .param "__cudaparmf1__Z10getNormale6float3S_" from 0xc to 0x18
GPGPU-Sim PTX: allocating stack frame region for .param "__cudaparmf2__Z10getNormale6float3S_" from 0x18 to 0x24
GPGPU-Sim PTX: allocating stack frame region for .param "__cudaretf__Z11getNormaleP6float3" from 0x0 to 0xc
GPGPU-Sim PTX: allocating stack frame region for .param "__cudaparmf1__Z11getNormaleP6float3" from 0xc to 0x18
GPGPU-Sim PTX: allocating stack frame region for .param "__cudaretf__Z14rgbaFloatToInt6float4" from 0x0 to 0x4
GPGPU-Sim PTX: allocating stack frame region for .param "__cudaparmf1__Z14rgbaFloatToInt6float4" from 0x4 to 0x14
GPGPU-Sim PTX: allocating stack frame region for .param "__cudaretf__Z12notShadowRayP4Node6float3S1_f" from 0x0 to 0x4
GPGPU-Sim PTX: allocating stack frame region for .param "__cudaparmf1__Z12notShadowRayP4Node6float3S1_f" from 0x4 to 0xc
GPGPU-Sim PTX: allocating stack frame region for .param "__cudaparmf2__Z12notShadowRayP4Node6float3S1_f" from 0xc to 0x18
GPGPU-Sim PTX: allocating stack frame region for .param "__cudaparmf3__Z12notShadowRayP4Node6float3S1_f" from 0x18 to 0x24
GPGPU-Sim PTX: allocating stack frame region for .param "__cudaparmf4__Z12notShadowRayP4Node6float3S1_f" from 0x24 to 0x28
GPGPU-Sim PTX: allocating stack frame region for .param "__cudaretf__Z15float2int_pow20f" from 0x0 to 0x4
GPGPU-Sim PTX: allocating stack frame region for .param "__cudaparmf1__Z15float2int_pow20f" from 0x4 to 0x8
GPGPU-Sim PTX: allocating stack frame region for .param "__cudaretf__Z15float2int_pow50f" from 0x0 to 0x4
GPGPU-Sim PTX: allocating stack frame region for .param "__cudaparmf1__Z15float2int_pow50f" from 0x4 to 0x8
GPGPU-Sim PTX: allocating stack frame region for .param "__cudaparmf1__ZN4dim3C1Ejjj" from 0x0 to 0x8
GPGPU-Sim PTX: allocating stack frame region for .param "__cudaparmf2__ZN4dim3C1Ejjj" from 0x8 to 0xc
GPGPU-Sim PTX: allocating stack frame region for .param "__cudaparmf3__ZN4dim3C1Ejjj" from 0xc to 0x10
GPGPU-Sim PTX: allocating stack frame region for .param "__cudaparmf4__ZN4dim3C1Ejjj" from 0x10 to 0x14
GPGPU-Sim PTX: instruction assembly for function '_Zmi6float3S_'...   done.
GPGPU-Sim PTX: finding reconvergence points for '_Zmi6float3S_'...
GPGPU-Sim PTX: Finding dominators for '_Zmi6float3S_'...
GPGPU-Sim PTX: Finding immediate dominators for '_Zmi6float3S_'...
GPGPU-Sim PTX: Finding postdominators for '_Zmi6float3S_'...
GPGPU-Sim PTX: Finding immediate postdominators for '_Zmi6float3S_'...
GPGPU-Sim PTX: pre-decoding instructions for '_Zmi6float3S_'...
GPGPU-Sim PTX: reconvergence points for _Zmi6float3S_...
GPGPU-Sim PTX: ... end of reconvergence points for _Zmi6float3S_
GPGPU-Sim PTX: ... done pre-decoding instructions for '_Zmi6float3S_'.
GPGPU-Sim PTX: instruction assembly for function '_Z9normalize6float3'...   done.
GPGPU-Sim PTX: finding reconvergence points for '_Z9normalize6float3'...
GPGPU-Sim PTX: Finding dominators for '_Z9normalize6float3'...
GPGPU-Sim PTX: Finding immediate dominators for '_Z9normalize6float3'...
GPGPU-Sim PTX: Finding postdominators for '_Z9normalize6float3'...
GPGPU-Sim PTX: Finding immediate postdominators for '_Z9normalize6float3'...
GPGPU-Sim PTX: pre-decoding instructions for '_Z9normalize6float3'...
GPGPU-Sim PTX: reconvergence points for _Z9normalize6float3...
GPGPU-Sim PTX: ... end of reconvergence points for _Z9normalize6float3
GPGPU-Sim PTX: ... done pre-decoding instructions for '_Z9normalize6float3'.
GPGPU-Sim PTX: instruction assembly for function '_Z18intersectionSphere5Rayon6float3f'...   done.
GPGPU-Sim PTX: finding reconvergence points for '_Z18intersectionSphere5Rayon6float3f'...
GPGPU-Sim PTX: Finding dominators for '_Z18intersectionSphere5Rayon6float3f'...
GPGPU-Sim PTX: Finding immediate dominators for '_Z18intersectionSphere5Rayon6float3f'...
GPGPU-Sim PTX: Finding postdominators for '_Z18intersectionSphere5Rayon6float3f'...
GPGPU-Sim PTX: Finding immediate postdominators for '_Z18intersectionSphere5Rayon6float3f'...
GPGPU-Sim PTX: pre-decoding instructions for '_Z18intersectionSphere5Rayon6float3f'...
GPGPU-Sim PTX: reconvergence points for _Z18intersectionSphere5Rayon6float3f...
GPGPU-Sim PTX:  1 (potential) branch divergence @  PC=0x250 (_1.ptx:173) @%p2 bra $Lt_2_3074;
GPGPU-Sim PTX:    immediate post dominator      @  PC=0x2c0 (_1.ptx:193) mov.f32 %f39, %f32;
GPGPU-Sim PTX:  2 (potential) branch divergence @  PC=0x260 (_1.ptx:175) bra.uni $Lt_2_2818;
GPGPU-Sim PTX:    immediate post dominator      @  PC=0x2c0 (_1.ptx:193) mov.f32 %f39, %f32;
GPGPU-Sim PTX:  3 (potential) branch divergence @  PC=0x280 (_1.ptx:180) @!%p3 bra $Lt_2_3586;
GPGPU-Sim PTX:    immediate post dominator      @  PC=0x2c0 (_1.ptx:193) mov.f32 %f39, %f32;
GPGPU-Sim PTX:  4 (potential) branch divergence @  PC=0x290 (_1.ptx:182) bra.uni $Lt_2_3330;
GPGPU-Sim PTX:    immediate post dominator      @  PC=0x2c0 (_1.ptx:193) mov.f32 %f39, %f32;
GPGPU-Sim PTX: ... end of reconvergence points for _Z18intersectionSphere5Rayon6float3f
GPGPU-Sim PTX: ... done pre-decoding instructions for '_Z18intersectionSphere5Rayon6float3f'.
GPGPU-Sim PTX: instruction assembly for function '_Z16intersectionPlan5Rayon6float3S0_'...   done.
GPGPU-Sim PTX: finding reconvergence points for '_Z16intersectionPlan5Rayon6float3S0_'...
GPGPU-Sim PTX: Finding dominators for '_Z16intersectionPlan5Rayon6float3S0_'...
GPGPU-Sim PTX: Finding immediate dominators for '_Z16intersectionPlan5Rayon6float3S0_'...
GPGPU-Sim PTX: Finding postdominators for '_Z16intersectionPlan5Rayon6float3S0_'...
GPGPU-Sim PTX: Finding immediate postdominators for '_Z16intersectionPlan5Rayon6float3S0_'...
GPGPU-Sim PTX: pre-decoding instructions for '_Z16intersectionPlan5Rayon6float3S0_'...
GPGPU-Sim PTX: reconvergence points for _Z16intersectionPlan5Rayon6float3S0_...
GPGPU-Sim PTX:  1 (potential) branch divergence @  PC=0x320 (_1.ptx:214) @!%p1 bra $Lt_3_2050;
GPGPU-Sim PTX:    immediate post dominator      @  PC=0x368 (_1.ptx:227) mov.f32 %f14, %f9;
GPGPU-Sim PTX:  2 (potential) branch divergence @  PC=0x330 (_1.ptx:216) bra.uni $Lt_3_1794;
GPGPU-Sim PTX:    immediate post dominator      @  PC=0x368 (_1.ptx:227) mov.f32 %f14, %f9;
GPGPU-Sim PTX: ... end of reconvergence points for _Z16intersectionPlan5Rayon6float3S0_
GPGPU-Sim PTX: ... done pre-decoding instructions for '_Z16intersectionPlan5Rayon6float3S0_'.
GPGPU-Sim PTX: instruction assembly for function '_Z10getNormale6float3S_'...   done.
GPGPU-Sim PTX: finding reconvergence points for '_Z10getNormale6float3S_'...
GPGPU-Sim PTX: Finding dominators for '_Z10getNormale6float3S_'...
GPGPU-Sim PTX: Finding immediate dominators for '_Z10getNormale6float3S_'...
GPGPU-Sim PTX: Finding postdominators for '_Z10getNormale6float3S_'...
GPGPU-Sim PTX: Finding immediate postdominators for '_Z10getNormale6float3S_'...
GPGPU-Sim PTX: pre-decoding instructions for '_Z10getNormale6float3S_'...
GPGPU-Sim PTX: reconvergence points for _Z10getNormale6float3S_...
GPGPU-Sim PTX: ... end of reconvergence points for _Z10getNormale6float3S_
GPGPU-Sim PTX: ... done pre-decoding instructions for '_Z10getNormale6float3S_'.
GPGPU-Sim PTX: instruction assembly for function '_Z11getNormaleP6float3'...   done.
GPGPU-Sim PTX: finding reconvergence points for '_Z11getNormaleP6float3'...
GPGPU-Sim PTX: Finding dominators for '_Z11getNormaleP6float3'...
GPGPU-Sim PTX: Finding immediate dominators for '_Z11getNormaleP6float3'...
GPGPU-Sim PTX: Finding postdominators for '_Z11getNormaleP6float3'...
GPGPU-Sim PTX: Finding immediate postdominators for '_Z11getNormaleP6float3'...
GPGPU-Sim PTX: pre-decoding instructions for '_Z11getNormaleP6float3'...
GPGPU-Sim PTX: reconvergence points for _Z11getNormaleP6float3...
GPGPU-Sim PTX: ... end of reconvergence points for _Z11getNormaleP6float3
GPGPU-Sim PTX: ... done pre-decoding instructions for '_Z11getNormaleP6float3'.
GPGPU-Sim PTX: instruction assembly for function '_Z14rgbaFloatToInt6float4'...   done.
GPGPU-Sim PTX: finding reconvergence points for '_Z14rgbaFloatToInt6float4'...
GPGPU-Sim PTX: Finding dominators for '_Z14rgbaFloatToInt6float4'...
GPGPU-Sim PTX: Finding immediate dominators for '_Z14rgbaFloatToInt6float4'...
GPGPU-Sim PTX: Finding postdominators for '_Z14rgbaFloatToInt6float4'...
GPGPU-Sim PTX: Finding immediate postdominators for '_Z14rgbaFloatToInt6float4'...
GPGPU-Sim PTX: pre-decoding instructions for '_Z14rgbaFloatToInt6float4'...
GPGPU-Sim PTX: reconvergence points for _Z14rgbaFloatToInt6float4...
GPGPU-Sim PTX: ... end of reconvergence points for _Z14rgbaFloatToInt6float4
GPGPU-Sim PTX: ... done pre-decoding instructions for '_Z14rgbaFloatToInt6float4'.
GPGPU-Sim PTX: allocating global region for "cnode" from 0x100 to 0x1a0 (global memory space)
GPGPU-Sim PTX: instruction assembly for function '_Z12notShadowRayP4Node6float3S1_f'...   done.
GPGPU-Sim PTX: finding reconvergence points for '_Z12notShadowRayP4Node6float3S1_f'...
GPGPU-Sim PTX: Finding dominators for '_Z12notShadowRayP4Node6float3S1_f'...
GPGPU-Sim PTX: Finding immediate dominators for '_Z12notShadowRayP4Node6float3S1_f'...
GPGPU-Sim PTX: Finding postdominators for '_Z12notShadowRayP4Node6float3S1_f'...
GPGPU-Sim PTX: Finding immediate postdominators for '_Z12notShadowRayP4Node6float3S1_f'...
GPGPU-Sim PTX: pre-decoding instructions for '_Z12notShadowRayP4Node6float3S1_f'...
GPGPU-Sim PTX: reconvergence points for _Z12notShadowRayP4Node6float3S1_f...
GPGPU-Sim PTX:  1 (potential) branch divergence @  PC=0x638 (_1.ptx:364) @%p1 bra $Lt_7_8450;
GPGPU-Sim PTX:    immediate post dominator      @  PC=0x828 (_1.ptx:441) mov.f32 %f58, 0f00000000;    // 0
GPGPU-Sim PTX:  2 (potential) branch divergence @  PC=0x658 (_1.ptx:369) @!%p2 bra $Lt_7_8962;
GPGPU-Sim PTX:    immediate post dominator      @  PC=0x6b8 (_1.ptx:385) mov.f32 %f28, %f20;
GPGPU-Sim PTX:  3 (potential) branch divergence @  PC=0x668 (_1.ptx:371) bra.uni $Lt_7_8706;
GPGPU-Sim PTX:    immediate post dominator      @  PC=0x6b8 (_1.ptx:385) mov.f32 %f28, %f20;
GPGPU-Sim PTX:  4 (potential) branch divergence @  PC=0x6c0 (_1.ptx:386) bra.uni $Lt_7_8194;
GPGPU-Sim PTX:    immediate post dominator      @  PC=0x828 (_1.ptx:441) mov.f32 %f58, 0f00000000;    // 0
GPGPU-Sim PTX:  5 (potential) branch divergence @  PC=0x7b0 (_1.ptx:418) @%p5 bra $Lt_7_9474;
GPGPU-Sim PTX:    immediate post dominator      @  PC=0x820 (_1.ptx:438) mov.f32 %f28, %f51;
GPGPU-Sim PTX:  6 (potential) branch divergence @  PC=0x7c0 (_1.ptx:420) bra.uni $Lt_7_9730;
GPGPU-Sim PTX:    immediate post dominator      @  PC=0x820 (_1.ptx:438) mov.f32 %f28, %f51;
GPGPU-Sim PTX:  7 (potential) branch divergence @  PC=0x7e0 (_1.ptx:425) @!%p6 bra $Lt_7_9986;
GPGPU-Sim PTX:    immediate post dominator      @  PC=0x820 (_1.ptx:438) mov.f32 %f28, %f51;
GPGPU-Sim PTX:  8 (potential) branch divergence @  PC=0x7f0 (_1.ptx:427) bra.uni $Lt_7_9730;
GPGPU-Sim PTX:    immediate post dominator      @  PC=0x820 (_1.ptx:438) mov.f32 %f28, %f51;
GPGPU-Sim PTX:  9 (potential) branch divergence @  PC=0x838 (_1.ptx:443) @!%p7 bra $Lt_7_10242;
GPGPU-Sim PTX:    immediate post dominator      @  PC=0x8e8 (_1.ptx:468) add.s32 %r1, %r1, 1;
GPGPU-Sim PTX: 10 (potential) branch divergence @  PC=0x8d8 (_1.ptx:463) @!%p8 bra $Lt_7_10242;
GPGPU-Sim PTX:    immediate post dominator      @  PC=0x8e8 (_1.ptx:468) add.s32 %r1, %r1, 1;
GPGPU-Sim PTX: 11 (potential) branch divergence @  PC=0x908 (_1.ptx:472) @%p9 bra $Lt_7_10754;
GPGPU-Sim PTX:    immediate post dominator      @  PC=0x960 (_1.ptx:486) selp.s32 %r10, 1, 0, %p11;
GPGPU-Sim PTX: 12 (potential) branch divergence @  PC=0x930 (_1.ptx:477) @%p10 bra $L_7_7170;
GPGPU-Sim PTX:    immediate post dominator      @  PC=0x960 (_1.ptx:486) selp.s32 %r10, 1, 0, %p11;
GPGPU-Sim PTX: 13 (potential) branch divergence @  PC=0x938 (_1.ptx:478) bra.uni $L_7_7938;
GPGPU-Sim PTX:    immediate post dominator      @  PC=0x960 (_1.ptx:486) selp.s32 %r10, 1, 0, %p11;
GPGPU-Sim PTX: ... end of reconvergence points for _Z12notShadowRayP4Node6float3S1_f
GPGPU-Sim PTX: ... done pre-decoding instructions for '_Z12notShadowRayP4Node6float3S1_f'.
GPGPU-Sim PTX: instruction assembly for function '_Z15float2int_pow20f'...   done.
GPGPU-Sim PTX: finding reconvergence points for '_Z15float2int_pow20f'...
GPGPU-Sim PTX: Finding dominators for '_Z15float2int_pow20f'...
GPGPU-Sim PTX: Finding immediate dominators for '_Z15float2int_pow20f'...
GPGPU-Sim PTX: Finding postdominators for '_Z15float2int_pow20f'...
GPGPU-Sim PTX: Finding immediate postdominators for '_Z15float2int_pow20f'...
GPGPU-Sim PTX: pre-decoding instructions for '_Z15float2int_pow20f'...
GPGPU-Sim PTX: reconvergence points for _Z15float2int_pow20f...
GPGPU-Sim PTX: ... end of reconvergence points for _Z15float2int_pow20f
GPGPU-Sim PTX: ... done pre-decoding instructions for '_Z15float2int_pow20f'.
GPGPU-Sim PTX: instruction assembly for function '_Z15float2int_pow50f'...   done.
GPGPU-Sim PTX: finding reconvergence points for '_Z15float2int_pow50f'...
GPGPU-Sim PTX: Finding dominators for '_Z15float2int_pow50f'...
GPGPU-Sim PTX: Finding immediate dominators for '_Z15float2int_pow50f'...
GPGPU-Sim PTX: Finding postdominators for '_Z15float2int_pow50f'...
GPGPU-Sim PTX: Finding immediate postdominators for '_Z15float2int_pow50f'...
GPGPU-Sim PTX: pre-decoding instructions for '_Z15float2int_pow50f'...
GPGPU-Sim PTX: reconvergence points for _Z15float2int_pow50f...
GPGPU-Sim PTX: ... end of reconvergence points for _Z15float2int_pow50f
GPGPU-Sim PTX: ... done pre-decoding instructions for '_Z15float2int_pow50f'.
GPGPU-Sim PTX: allocating constant region for "MView" from 0x200 to 0x230 (global memory space) 1
GPGPU-Sim PTX: allocating stack frame region for .local "__cuda___cuda_local_var_36873_9_non_const_pile_32240" from 0x0 to 0x50
GPGPU-Sim PTX: instruction assembly for function '_Z6renderPjP4Nodejjff'...   done.
GPGPU-Sim PTX: finding reconvergence points for '_Z6renderPjP4Nodejjff'...
GPGPU-Sim PTX: Finding dominators for '_Z6renderPjP4Nodejjff'...
GPGPU-Sim PTX: Finding immediate dominators for '_Z6renderPjP4Nodejjff'...
GPGPU-Sim PTX: Finding postdominators for '_Z6renderPjP4Nodejjff'...
GPGPU-Sim PTX: Finding immediate postdominators for '_Z6renderPjP4Nodejjff'...
GPGPU-Sim PTX: pre-decoding instructions for '_Z6renderPjP4Nodejjff'...
GPGPU-Sim PTX: reconvergence points for _Z6renderPjP4Nodejjff...
GPGPU-Sim PTX:  1 (potential) branch divergence @  PC=0xdb0 (_1.ptx:663) @%p1 bra $Lt_10_44034;
GPGPU-Sim PTX:    immediate post dominator      @  PC=0x2370 (_1.ptx:1495) exit;
GPGPU-Sim PTX:  2 (potential) branch divergence @  PC=0x1028 (_1.ptx:751) @%p2 bra $Lt_10_45570;
GPGPU-Sim PTX:    immediate post dominator      @  PC=0x11b8 (_1.ptx:815) mov.f32 %f108, 0f00000000;   // 0
GPGPU-Sim PTX:  3 (potential) branch divergence @  PC=0x1048 (_1.ptx:756) @!%p3 bra $Lt_10_46082;
GPGPU-Sim PTX:    immediate post dominator      @  PC=0x1090 (_1.ptx:769) mov.f32 %f87, %f82;
GPGPU-Sim PTX:  4 (potential) branch divergence @  PC=0x1058 (_1.ptx:758) bra.uni $Lt_10_45826;
GPGPU-Sim PTX:    immediate post dominator      @  PC=0x1090 (_1.ptx:769) mov.f32 %f87, %f82;
GPGPU-Sim PTX:  5 (potential) branch divergence @  PC=0x1098 (_1.ptx:770) bra.uni $Lt_10_45314;
GPGPU-Sim PTX:    immediate post dominator      @  PC=0x11b8 (_1.ptx:815) mov.f32 %f108, 0f00000000;   // 0
GPGPU-Sim PTX:  6 (potential) branch divergence @  PC=0x1140 (_1.ptx:793) @%p6 bra $Lt_10_46594;
GPGPU-Sim PTX:    immediate post dominator      @  PC=0x11b0 (_1.ptx:813) mov.f32 %f87, %f101;
GPGPU-Sim PTX:  7 (potential) branch divergence @  PC=0x1150 (_1.ptx:795) bra.uni $Lt_10_46850;
GPGPU-Sim PTX:    immediate post dominator      @  PC=0x11b0 (_1.ptx:813) mov.f32 %f87, %f101;
GPGPU-Sim PTX:  8 (potential) branch divergence @  PC=0x1170 (_1.ptx:800) @!%p7 bra $Lt_10_47106;
GPGPU-Sim PTX:    immediate post dominator      @  PC=0x11b0 (_1.ptx:813) mov.f32 %f87, %f101;
GPGPU-Sim PTX:  9 (potential) branch divergence @  PC=0x1180 (_1.ptx:802) bra.uni $Lt_10_46850;
GPGPU-Sim PTX:    immediate post dominator      @  PC=0x11b0 (_1.ptx:813) mov.f32 %f87, %f101;
GPGPU-Sim PTX: 10 (potential) branch divergence @  PC=0x11f8 (_1.ptx:823) @%p8 bra $Lt_10_47362;
GPGPU-Sim PTX:    immediate post dominator      @  PC=0x1210 (_1.ptx:829) add.s32 %r25, %r25, 1;
GPGPU-Sim PTX: 11 (potential) branch divergence @  PC=0x1230 (_1.ptx:833) @%p9 bra $Lt_10_45058;
GPGPU-Sim PTX:    immediate post dominator      @  PC=0x1238 (_1.ptx:834) mov.f32 %f109, 0f00000000;   // 0
GPGPU-Sim PTX: 12 (potential) branch divergence @  PC=0x1280 (_1.ptx:843) @%p10 bra $Lt_10_48130;
GPGPU-Sim PTX:    immediate post dominator      @  PC=0x2140 (_1.ptx:1416) add.s32 %r23, %r23, 1;
GPGPU-Sim PTX: 13 (potential) branch divergence @  PC=0x1330 (_1.ptx:868) @%p11 bra $Lt_10_48898;
GPGPU-Sim PTX:    immediate post dominator      @  PC=0x13b8 (_1.ptx:888) sub.f32 %f136, %f21, %f119;
GPGPU-Sim PTX: 14 (potential) branch divergence @  PC=0x1350 (_1.ptx:873) bra.uni $Lt_10_48642;
GPGPU-Sim PTX:    immediate post dominator      @  PC=0x13b8 (_1.ptx:888) sub.f32 %f136, %f21, %f119;
GPGPU-Sim PTX: 15 (potential) branch divergence @  PC=0x1430 (_1.ptx:903) @!%p12 bra $Lt_10_49410;
GPGPU-Sim PTX:    immediate post dominator      @  PC=0x1470 (_1.ptx:915) mov.f32 %f153, 0f3d4ccccd;   // 0.05
GPGPU-Sim PTX: 16 (potential) branch divergence @  PC=0x1450 (_1.ptx:908) bra.uni $Lt_10_49154;
GPGPU-Sim PTX:    immediate post dominator      @  PC=0x1470 (_1.ptx:915) mov.f32 %f153, 0f3d4ccccd;   // 0.05
GPGPU-Sim PTX: 17 (potential) branch divergence @  PC=0x1578 (_1.ptx:949) @!%p13 bra $Lt_10_58114;
GPGPU-Sim PTX:    immediate post dominator      @  PC=0x2080 (_1.ptx:1388) add.f32 %f399, %f126, %f126;
GPGPU-Sim PTX: 18 (potential) branch divergence @  PC=0x15c0 (_1.ptx:961) @%p14 bra $Lt_10_49922;
GPGPU-Sim PTX:    immediate post dominator      @  PC=0x17b0 (_1.ptx:1039) mov.f32 %f221, 0f00000000;   // 0
GPGPU-Sim PTX: 19 (potential) branch divergence @  PC=0x15e0 (_1.ptx:966) @!%p15 bra $Lt_10_50434;
GPGPU-Sim PTX:    immediate post dominator      @  PC=0x1638 (_1.ptx:982) mov.f32 %f190, %f183;
GPGPU-Sim PTX: 20 (potential) branch divergence @  PC=0x15f0 (_1.ptx:968) bra.uni $Lt_10_50178;
GPGPU-Sim PTX:    immediate post dominator      @  PC=0x1638 (_1.ptx:982) mov.f32 %f190, %f183;
GPGPU-Sim PTX: 21 (potential) branch divergence @  PC=0x1640 (_1.ptx:983) bra.uni $Lt_10_49666;
GPGPU-Sim PTX:    immediate post dominator      @  PC=0x17b0 (_1.ptx:1039) mov.f32 %f221, 0f00000000;   // 0
GPGPU-Sim PTX: 22 (potential) branch divergence @  PC=0x1738 (_1.ptx:1016) @%p18 bra $Lt_10_50946;
GPGPU-Sim PTX:    immediate post dominator      @  PC=0x17a8 (_1.ptx:1036) mov.f32 %f190, %f214;
GPGPU-Sim PTX: 23 (potential) branch divergence @  PC=0x1748 (_1.ptx:1018) bra.uni $Lt_10_51202;
GPGPU-Sim PTX:    immediate post dominator      @  PC=0x17a8 (_1.ptx:1036) mov.f32 %f190, %f214;
GPGPU-Sim PTX: 24 (potential) branch divergence @  PC=0x1768 (_1.ptx:1023) @!%p19 bra $Lt_10_51458;
GPGPU-Sim PTX:    immediate post dominator      @  PC=0x17a8 (_1.ptx:1036) mov.f32 %f190, %f214;
GPGPU-Sim PTX: 25 (potential) branch divergence @  PC=0x1778 (_1.ptx:1025) bra.uni $Lt_10_51202;
GPGPU-Sim PTX:    immediate post dominator      @  PC=0x17a8 (_1.ptx:1036) mov.f32 %f190, %f214;
GPGPU-Sim PTX: 26 (potential) branch divergence @  PC=0x17c0 (_1.ptx:1041) @!%p20 bra $Lt_10_58370;
GPGPU-Sim PTX:    immediate post dominator      @  PC=0x1828 (_1.ptx:1057) add.s32 %r50, %r50, 1;
GPGPU-Sim PTX: 27 (potential) branch divergence @  PC=0x1818 (_1.ptx:1052) @!%p21 bra $Lt_10_58370;
GPGPU-Sim PTX:    immediate post dominator      @  PC=0x1828 (_1.ptx:1057) add.s32 %r50, %r50, 1;
GPGPU-Sim PTX: 28 (potential) branch divergence @  PC=0x1848 (_1.ptx:1061) @%p22 bra $Lt_10_58882;
GPGPU-Sim PTX:    immediate post dominator      @  PC=0x1880 (_1.ptx:1071) @!%p23 bra $Lt_10_58114;
GPGPU-Sim PTX: 29 (potential) branch divergence @  PC=0x1860 (_1.ptx:1064) @%p23 bra $L_10_42498;
GPGPU-Sim PTX:    immediate post dominator      @  PC=0x1880 (_1.ptx:1071) @!%p23 bra $Lt_10_58114;
GPGPU-Sim PTX: 30 (potential) branch divergence @  PC=0x1868 (_1.ptx:1065) bra.uni $L_10_43266;
GPGPU-Sim PTX:    immediate post dominator      @  PC=0x1880 (_1.ptx:1071) @!%p23 bra $Lt_10_58114;
GPGPU-Sim PTX: 31 (potential) branch divergence @  PC=0x1880 (_1.ptx:1071) @!%p23 bra $Lt_10_58114;
GPGPU-Sim PTX:    immediate post dominator      @  PC=0x2080 (_1.ptx:1388) add.f32 %f399, %f126, %f126;
GPGPU-Sim PTX: 32 (potential) branch divergence @  PC=0x19c8 (_1.ptx:1115) @!%p24 bra $Lt_10_51714;
GPGPU-Sim PTX:    immediate post dominator      @  PC=0x2040 (_1.ptx:1375) mov.f32 %f394, 0f3f4ccccd;   // 0.8
GPGPU-Sim PTX: 33 (potential) branch divergence @  PC=0x19d8 (_1.ptx:1118) bra.uni $LDWendi___isnanf_192_1;
GPGPU-Sim PTX:    immediate post dominator      @  PC=0x2040 (_1.ptx:1375) mov.f32 %f394, 0f3f4ccccd;   // 0.8
GPGPU-Sim PTX: 34 (potential) branch divergence @  PC=0x19f8 (_1.ptx:1124) @!%p25 bra $Lt_10_7682;
GPGPU-Sim PTX:    immediate post dominator      @  PC=0x2040 (_1.ptx:1375) mov.f32 %f394, 0f3f4ccccd;   // 0.8
GPGPU-Sim PTX: 35 (potential) branch divergence @  PC=0x1a00 (_1.ptx:1125) bra.uni $Lt_10_7938;
GPGPU-Sim PTX:    immediate post dominator      @  PC=0x1a20 (_1.ptx:1133) mov.f32 %f272, 0f7f800000;   // ((1.0F)/(0.0F))
GPGPU-Sim PTX: 36 (potential) branch divergence @  PC=0x1a18 (_1.ptx:1130) bra.uni $LDWendi___isnanf_192_1;
GPGPU-Sim PTX:    immediate post dominator      @  PC=0x2040 (_1.ptx:1375) mov.f32 %f394, 0f3f4ccccd;   // 0.8
GPGPU-Sim PTX: 37 (potential) branch divergence @  PC=0x1a30 (_1.ptx:1135) @!%p26 bra $Lt_10_52226;
GPGPU-Sim PTX:    immediate post dominator      @  PC=0x2040 (_1.ptx:1375) mov.f32 %f394, 0f3f4ccccd;   // 0.8
GPGPU-Sim PTX: 38 (potential) branch divergence @  PC=0x1a40 (_1.ptx:1138) bra.uni $LDWendi___isnanf_192_1;
GPGPU-Sim PTX:    immediate post dominator      @  PC=0x2040 (_1.ptx:1375) mov.f32 %f394, 0f3f4ccccd;   // 0.8
GPGPU-Sim PTX: 39 (potential) branch divergence @  PC=0x1a58 (_1.ptx:1142) @!%p27 bra $Lt_10_52738;
GPGPU-Sim PTX:    immediate post dominator      @  PC=0x2040 (_1.ptx:1375) mov.f32 %f394, 0f3f4ccccd;   // 0.8
GPGPU-Sim PTX: 40 (potential) branch divergence @  PC=0x1ab8 (_1.ptx:1155) bra.uni $LDWendi___isnanf_192_1;
GPGPU-Sim PTX:    immediate post dominator      @  PC=0x2040 (_1.ptx:1375) mov.f32 %f394, 0f3f4ccccd;   // 0.8
GPGPU-Sim PTX: 41 (potential) branch divergence @  PC=0x1ad0 (_1.ptx:1159) @!%p29 bra $Lt_10_53250;
GPGPU-Sim PTX:    immediate post dominator      @  PC=0x2040 (_1.ptx:1375) mov.f32 %f394, 0f3f4ccccd;   // 0.8
GPGPU-Sim PTX: 42 (potential) branch divergence @  PC=0x1b20 (_1.ptx:1170) @!%p30 bra $Lt_10_53762;
GPGPU-Sim PTX:    immediate post dominator      @  PC=0x1b40 (_1.ptx:1177) mov.f32 %f268, %f284;
GPGPU-Sim PTX: 43 (potential) branch divergence @  PC=0x1b48 (_1.ptx:1178) bra.uni $LDWendi___isnanf_192_1;
GPGPU-Sim PTX:    immediate post dominator      @  PC=0x2040 (_1.ptx:1375) mov.f32 %f394, 0f3f4ccccd;   // 0.8
GPGPU-Sim PTX: 44 (potential) branch divergence @  PC=0x1b60 (_1.ptx:1183) @!%p31 bra $Lt_10_59394;
GPGPU-Sim PTX:    immediate post dominator      @  PC=0x2040 (_1.ptx:1375) mov.f32 %f394, 0f3f4ccccd;   // 0.8
GPGPU-Sim PTX: 45 (potential) branch divergence @  PC=0x1b88 (_1.ptx:1188) @!%p32 bra $Lt_10_59394;
GPGPU-Sim PTX:    immediate post dominator      @  PC=0x2040 (_1.ptx:1375) mov.f32 %f394, 0f3f4ccccd;   // 0.8
GPGPU-Sim PTX: 46 (potential) branch divergence @  PC=0x1ba0 (_1.ptx:1192) bra.uni $LDWendi___isnanf_192_1;
GPGPU-Sim PTX:    immediate post dominator      @  PC=0x2040 (_1.ptx:1375) mov.f32 %f394, 0f3f4ccccd;   // 0.8
GPGPU-Sim PTX: 47 (potential) branch divergence @  PC=0x1bd8 (_1.ptx:1202) @%p33 bra $Lt_10_54530;
GPGPU-Sim PTX:    immediate post dominator      @  PC=0x1c20 (_1.ptx:1216) sub.s32 %r64, %r64, 127;
GPGPU-Sim PTX: 48 (potential) branch divergence @  PC=0x1c10 (_1.ptx:1211) bra.uni $Lt_10_54274;
GPGPU-Sim PTX:    immediate post dominator      @  PC=0x1c20 (_1.ptx:1216) sub.s32 %r64, %r64, 127;
GPGPU-Sim PTX: 49 (potential) branch divergence @  PC=0x1c58 (_1.ptx:1224) @!%p34 bra $Lt_10_54786;
GPGPU-Sim PTX:    immediate post dominator      @  PC=0x1c78 (_1.ptx:1232) mov.f32 %f302, 0fbf800000;   // -1
GPGPU-Sim PTX: 50 (potential) branch divergence @  PC=0x1eb0 (_1.ptx:1312) @%p35 bra $Lt_10_55298;
GPGPU-Sim PTX:    immediate post dominator      @  PC=0x1ed8 (_1.ptx:1321) mov.f32 %f367, %f365;
GPGPU-Sim PTX: 51 (potential) branch divergence @  PC=0x1f98 (_1.ptx:1346) @!%p38 bra $Lt_10_55810;
GPGPU-Sim PTX:    immediate post dominator      @  PC=0x1fa8 (_1.ptx:1351) mov.f32 %f284, %f386;
GPGPU-Sim PTX: 52 (potential) branch divergence @  PC=0x2018 (_1.ptx:1365) @%p39 bra $Lt_10_56322;
GPGPU-Sim PTX:    immediate post dominator      @  PC=0x2038 (_1.ptx:1372) mov.f32 %f268, %f284;
GPGPU-Sim PTX: 53 (potential) branch divergence @  PC=0x2158 (_1.ptx:1419) @%p40 bra $L_10_42242;
GPGPU-Sim PTX:    immediate post dominator      @  PC=0x2170 (_1.ptx:1424) sub.s32 %r86, %r24, 1;
GPGPU-Sim PTX: 54 (potential) branch divergence @  PC=0x2168 (_1.ptx:1421) @%p41 bra $L_10_41474;
GPGPU-Sim PTX:    immediate post dominator      @  PC=0x2170 (_1.ptx:1424) sub.s32 %r86, %r24, 1;
GPGPU-Sim PTX: 55 (potential) branch divergence @  PC=0x2190 (_1.ptx:1428) @%p42 bra $Lt_10_56834;
GPGPU-Sim PTX:    immediate post dominator      @  PC=0x2288 (_1.ptx:1464) ld.global.u32 %r92, [%rd4+0];
GPGPU-Sim PTX: 56 (potential) branch divergence @  PC=0x2280 (_1.ptx:1461) @%p43 bra $Lt_10_57346;
GPGPU-Sim PTX:    immediate post dominator      @  PC=0x2288 (_1.ptx:1464) ld.global.u32 %r92, [%rd4+0];
GPGPU-Sim PTX: ... end of reconvergence points for _Z6renderPjP4Nodejjff
GPGPU-Sim PTX: ... done pre-decoding instructions for '_Z6renderPjP4Nodejjff'.
GPGPU-Sim PTX: instruction assembly for function '_ZN4dim3C1Ejjj'...   done.
GPGPU-Sim PTX: finding reconvergence points for '_ZN4dim3C1Ejjj'...
GPGPU-Sim PTX: Finding dominators for '_ZN4dim3C1Ejjj'...
GPGPU-Sim PTX: Finding immediate dominators for '_ZN4dim3C1Ejjj'...
GPGPU-Sim PTX: Finding postdominators for '_ZN4dim3C1Ejjj'...
GPGPU-Sim PTX: Finding immediate postdominators for '_ZN4dim3C1Ejjj'...
GPGPU-Sim PTX: pre-decoding instructions for '_ZN4dim3C1Ejjj'...
GPGPU-Sim PTX: reconvergence points for _ZN4dim3C1Ejjj...
GPGPU-Sim PTX: ... end of reconvergence points for _ZN4dim3C1Ejjj
GPGPU-Sim PTX: ... done pre-decoding instructions for '_ZN4dim3C1Ejjj'.
GPGPU-Sim PTX: finished parsing EMBEDDED .ptx file _1.ptx
Adding _cuobjdump_2.ptx with cubin handle 1
GPGPU-Sim PTX: extracting embedded .ptx to temporary file "_ptx_RRGy2R"
Running: cat _ptx_RRGy2R | sed 's/.version 1.5/.version 1.4/' | sed 's/, texmode_independent//' | sed 's/\(\.extern \.const\[1\] .b8 \w\+\)\[\]/\1\[1\]/' | sed 's/const\[.\]/const\[0\]/g' > _ptx2_OAehic
GPGPU-Sim PTX: generating ptxinfo using "$CUDA_INSTALL_PATH/bin/ptxas --gpu-name=sm_20 -v _ptx2_OAehic --output-file  /dev/null 2> _ptx_RRGy2Rinfo"
GPGPU-Sim PTX: Kernel '_Z6renderPjP4Nodejjff' : regs=45, lmem=4, smem=0, cmem=180
GPGPU-Sim PTX: removing ptxinfo using "rm -f _ptx_RRGy2R _ptx2_OAehic _ptx_RRGy2Rinfo"
GPGPU-Sim PTX: loading globals with explicit initializers... 
GPGPU-Sim PTX: finished loading globals (0 bytes total).
GPGPU-Sim PTX: loading constants with explicit initializers...  done.
GPGPU-Sim PTX: __cudaRegisterVar: hostVar = 0x636760; deviceAddress = MView; deviceName = MView
GPGPU-Sim PTX: __cudaRegisterVar: Registering const memory space of 48 bytes
GPGPU-Sim PTX registering constant MView (48 bytes) to name mapping
GPGPU-Sim PTX: __cudaRegisterVar: hostVar = 0x6367a0; deviceAddress = cnode; deviceName = cnode
GPGPU-Sim PTX: __cudaRegisterVar: Registering const memory space of 160 bytes
GPGPU-Sim PTX registering constant cnode (160 bytes) to name mapping
GPGPU-Sim PTX: cudaMemcpyToSymbol: symbol = 0x6367a0
GPGPU-Sim PTX: starting gpgpu_ptx_sim_memcpy_symbol with hostVar 0x0x6367a0
GPGPU-Sim PTX: gpgpu_ptx_sim_memcpy_symbol: Found PTX symbol w/ hostVar=0x6367a0
GPGPU-Sim PTX: gpgpu_ptx_sim_memcpy_symbol: copying const memory 160 bytes  to  symbol cnode+0 @0x100 ...
GPGPU-Sim PTX: cudaMemcpyToSymbol: symbol = 0x636760
GPGPU-Sim PTX: starting gpgpu_ptx_sim_memcpy_symbol with hostVar 0x0x636760
GPGPU-Sim PTX: gpgpu_ptx_sim_memcpy_symbol: Found PTX symbol w/ hostVar=0x636760
GPGPU-Sim PTX: gpgpu_ptx_sim_memcpy_symbol: copying const memory 48 bytes  to  symbol MView+0 @0x200 ...

GPGPU-Sim PTX: cudaLaunch for 0x0x40a280 (mode=performance simulation) on stream 0
GPGPU-Sim PTX: pushing kernel '_Z6renderPjP4Nodejjff' to stream 0, gridDim= (16,32,1) blockDim = (16,8,1) 
kernel '_Z6renderPjP4Nodejjff' transfer to GPU hardware scheduler
GPGPU-Sim uArch: Shader 1 bind to kernel 1 '_Z6renderPjP4Nodejjff'
GPGPU-Sim uArch: CTA/core = 5, limited by: regs
GPGPU-Sim uArch: core:  1, cta: 0 initialized @(1,0)
GPGPU-Sim uArch: Shader 2 bind to kernel 1 '_Z6renderPjP4Nodejjff'
GPGPU-Sim uArch: core:  2, cta: 0 initialized @(1,0)
GPGPU-Sim uArch: Shader 3 bind to kernel 1 '_Z6renderPjP4Nodejjff'
GPGPU-Sim uArch: core:  3, cta: 0 initialized @(1,0)
GPGPU-Sim uArch: Shader 4 bind to kernel 1 '_Z6renderPjP4Nodejjff'
GPGPU-Sim uArch: core:  4, cta: 0 initialized @(1,0)
GPGPU-Sim uArch: Shader 5 bind to kernel 1 '_Z6renderPjP4Nodejjff'
GPGPU-Sim uArch: core:  5, cta: 0 initialized @(1,0)
GPGPU-Sim uArch: Shader 6 bind to kernel 1 '_Z6renderPjP4Nodejjff'
GPGPU-Sim uArch: core:  6, cta: 0 initialized @(1,0)
GPGPU-Sim uArch: Shader 7 bind to kernel 1 '_Z6renderPjP4Nodejjff'
GPGPU-Sim uArch: core:  7, cta: 0 initialized @(1,0)
GPGPU-Sim uArch: Shader 8 bind to kernel 1 '_Z6renderPjP4Nodejjff'
GPGPU-Sim uArch: core:  8, cta: 0 initialized @(1,0)
GPGPU-Sim uArch: Shader 9 bind to kernel 1 '_Z6renderPjP4Nodejjff'
GPGPU-Sim uArch: core:  9, cta: 0 initialized @(1,0)
GPGPU-Sim uArch: Shader 10 bind to kernel 1 '_Z6renderPjP4Nodejjff'
GPGPU-Sim uArch: core: 10, cta: 0 initialized @(1,0)
GPGPU-Sim uArch: Shader 11 bind to kernel 1 '_Z6renderPjP4Nodejjff'
GPGPU-Sim uArch: core: 11, cta: 0 initialized @(1,0)
GPGPU-Sim uArch: Shader 12 bind to kernel 1 '_Z6renderPjP4Nodejjff'
GPGPU-Sim uArch: core: 12, cta: 0 initialized @(1,0)
GPGPU-Sim uArch: Shader 13 bind to kernel 1 '_Z6renderPjP4Nodejjff'
GPGPU-Sim uArch: core: 13, cta: 0 initialized @(1,0)
GPGPU-Sim uArch: Shader 14 bind to kernel 1 '_Z6renderPjP4Nodejjff'
GPGPU-Sim uArch: core: 14, cta: 0 initialized @(1,0)
GPGPU-Sim uArch: Shader 0 bind to kernel 1 '_Z6renderPjP4Nodejjff'
GPGPU-Sim uArch: core:  0, cta: 0 initialized @(1,0)
GPGPU-Sim uArch: core:  1, cta: 1 initialized @(2,0)
GPGPU-Sim uArch: core:  2, cta: 1 initialized @(2,0)
GPGPU-Sim uArch: core:  3, cta: 1 initialized @(2,0)
GPGPU-Sim uArch: core:  4, cta: 1 initialized @(2,0)
GPGPU-Sim uArch: core:  5, cta: 1 initialized @(2,0)
GPGPU-Sim uArch: core:  6, cta: 1 initialized @(2,0)
GPGPU-Sim uArch: core:  7, cta: 1 initialized @(2,0)
GPGPU-Sim uArch: core:  8, cta: 1 initialized @(2,0)
GPGPU-Sim uArch: core:  9, cta: 1 initialized @(2,0)
GPGPU-Sim uArch: core: 10, cta: 1 initialized @(2,0)
GPGPU-Sim uArch: core: 11, cta: 1 initialized @(2,0)
GPGPU-Sim uArch: core: 12, cta: 1 initialized @(2,0)
GPGPU-Sim uArch: core: 13, cta: 1 initialized @(2,0)
GPGPU-Sim uArch: core: 14, cta: 1 initialized @(2,0)
GPGPU-Sim uArch: core:  0, cta: 1 initialized @(2,0)
GPGPU-Sim uArch: core:  1, cta: 2 initialized @(3,0)
GPGPU-Sim uArch: core:  2, cta: 2 initialized @(3,0)
GPGPU-Sim uArch: core:  3, cta: 2 initialized @(3,0)
GPGPU-Sim uArch: core:  4, cta: 2 initialized @(3,0)
GPGPU-Sim uArch: core:  5, cta: 2 initialized @(3,0)
GPGPU-Sim uArch: core:  6, cta: 2 initialized @(3,0)
GPGPU-Sim uArch: core:  7, cta: 2 initialized @(3,0)
GPGPU-Sim uArch: core:  8, cta: 2 initialized @(3,0)
GPGPU-Sim uArch: core:  9, cta: 2 initialized @(3,0)
GPGPU-Sim uArch: core: 10, cta: 2 initialized @(3,0)
GPGPU-Sim uArch: core: 11, cta: 2 initialized @(3,0)
GPGPU-Sim uArch: core: 12, cta: 2 initialized @(3,0)
GPGPU-Sim uArch: core: 13, cta: 2 initialized @(3,0)
GPGPU-Sim uArch: core: 14, cta: 2 initialized @(3,0)
GPGPU-Sim uArch: core:  0, cta: 2 initialized @(3,0)
GPGPU-Sim uArch: core:  1, cta: 3 initialized @(4,0)
GPGPU-Sim uArch: core:  2, cta: 3 initialized @(4,0)
GPGPU-Sim uArch: core:  3, cta: 3 initialized @(4,0)
GPGPU-Sim uArch: core:  4, cta: 3 initialized @(4,0)
GPGPU-Sim uArch: core:  5, cta: 3 initialized @(4,0)
GPGPU-Sim uArch: core:  6, cta: 3 initialized @(4,0)
GPGPU-Sim uArch: core:  7, cta: 3 initialized @(4,0)
GPGPU-Sim uArch: core:  8, cta: 3 initialized @(4,0)
GPGPU-Sim uArch: core:  9, cta: 3 initialized @(4,0)
GPGPU-Sim uArch: core: 10, cta: 3 initialized @(4,0)
GPGPU-Sim uArch: core: 11, cta: 3 initialized @(4,0)
GPGPU-Sim uArch: core: 12, cta: 3 initialized @(4,0)
GPGPU-Sim uArch: core: 13, cta: 3 initialized @(4,0)
GPGPU-Sim uArch: core: 14, cta: 3 initialized @(4,0)
GPGPU-Sim uArch: core:  0, cta: 3 initialized @(4,0)
GPGPU-Sim uArch: core:  1, cta: 4 initialized @(5,0)
GPGPU-Sim uArch: core:  2, cta: 4 initialized @(5,0)
GPGPU-Sim uArch: core:  3, cta: 4 initialized @(5,0)
GPGPU-Sim uArch: core:  4, cta: 4 initialized @(5,0)
GPGPU-Sim uArch: core:  5, cta: 4 initialized @(5,0)
GPGPU-Sim uArch: core:  6, cta: 4 initialized @(5,0)
GPGPU-Sim uArch: core:  7, cta: 4 initialized @(5,0)
GPGPU-Sim uArch: core:  8, cta: 4 initialized @(5,0)
GPGPU-Sim uArch: core:  9, cta: 4 initialized @(5,0)
GPGPU-Sim uArch: core: 10, cta: 4 initialized @(5,0)
GPGPU-Sim uArch: core: 11, cta: 4 initialized @(5,0)
GPGPU-Sim uArch: core: 12, cta: 4 initialized @(5,0)
GPGPU-Sim uArch: core: 13, cta: 4 initialized @(5,0)
GPGPU-Sim uArch: core: 14, cta: 4 initialized @(5,0)
GPGPU-Sim uArch: core:  0, cta: 4 initialized @(5,0)
GPGPU-Sim uArch: cycles simulated: 500  inst.: 17280 (ipc=34.6) sim_rate=8640 (inst/sec) elapsed = 0:0:00:02 / Wed May 13 00:08:01 2015
GPGPU-Sim uArch: cycles simulated: 1500  inst.: 54720 (ipc=36.5) sim_rate=18240 (inst/sec) elapsed = 0:0:00:03 / Wed May 13 00:08:02 2015
GPGPU-Sim uArch: cycles simulated: 2000  inst.: 61920 (ipc=31.0) sim_rate=15480 (inst/sec) elapsed = 0:0:00:04 / Wed May 13 00:08:03 2015
GPGPU-Sim uArch: cycles simulated: 3000  inst.: 94688 (ipc=31.6) sim_rate=18937 (inst/sec) elapsed = 0:0:00:05 / Wed May 13 00:08:04 2015
GPGPU-Sim PTX: 100000 instructions simulated : ctaid=(0,1,0) tid=(15,3,0)
GPGPU-Sim uArch: cycles simulated: 3500  inst.: 112416 (ipc=32.1) sim_rate=18736 (inst/sec) elapsed = 0:0:00:06 / Wed May 13 00:08:05 2015
GPGPU-Sim uArch: cycles simulated: 4000  inst.: 146912 (ipc=36.7) sim_rate=20987 (inst/sec) elapsed = 0:0:00:07 / Wed May 13 00:08:06 2015
GPGPU-Sim PTX: 200000 instructions simulated : ctaid=(12,2,0) tid=(15,1,0)
GPGPU-Sim uArch: cycles simulated: 5000  inst.: 199136 (ipc=39.8) sim_rate=24892 (inst/sec) elapsed = 0:0:00:08 / Wed May 13 00:08:07 2015
GPGPU-Sim uArch: cycles simulated: 5500  inst.: 218144 (ipc=39.7) sim_rate=24238 (inst/sec) elapsed = 0:0:00:09 / Wed May 13 00:08:08 2015
GPGPU-Sim uArch: cycles simulated: 6000  inst.: 236768 (ipc=39.5) sim_rate=23676 (inst/sec) elapsed = 0:0:00:10 / Wed May 13 00:08:09 2015
GPGPU-Sim uArch: cycles simulated: 6500  inst.: 253760 (ipc=39.0) sim_rate=23069 (inst/sec) elapsed = 0:0:00:11 / Wed May 13 00:08:10 2015
GPGPU-Sim uArch: cycles simulated: 7000  inst.: 279008 (ipc=39.9) sim_rate=23250 (inst/sec) elapsed = 0:0:00:12 / Wed May 13 00:08:11 2015
GPGPU-Sim PTX: 300000 instructions simulated : ctaid=(4,2,0) tid=(15,7,0)
GPGPU-Sim uArch: cycles simulated: 8000  inst.: 351392 (ipc=43.9) sim_rate=27030 (inst/sec) elapsed = 0:0:00:13 / Wed May 13 00:08:12 2015
GPGPU-Sim uArch: cycles simulated: 8500  inst.: 377760 (ipc=44.4) sim_rate=26982 (inst/sec) elapsed = 0:0:00:14 / Wed May 13 00:08:13 2015
GPGPU-Sim PTX: 400000 instructions simulated : ctaid=(6,3,0) tid=(15,1,0)
GPGPU-Sim uArch: cycles simulated: 9000  inst.: 400192 (ipc=44.5) sim_rate=26679 (inst/sec) elapsed = 0:0:00:15 / Wed May 13 00:08:14 2015
GPGPU-Sim uArch: cycles simulated: 9500  inst.: 430400 (ipc=45.3) sim_rate=26900 (inst/sec) elapsed = 0:0:00:16 / Wed May 13 00:08:15 2015
GPGPU-Sim uArch: cycles simulated: 10000  inst.: 482752 (ipc=48.3) sim_rate=28397 (inst/sec) elapsed = 0:0:00:17 / Wed May 13 00:08:16 2015
GPGPU-Sim PTX: 500000 instructions simulated : ctaid=(11,3,0) tid=(15,1,0)
GPGPU-Sim uArch: cycles simulated: 10500  inst.: 542848 (ipc=51.7) sim_rate=30158 (inst/sec) elapsed = 0:0:00:18 / Wed May 13 00:08:17 2015
GPGPU-Sim PTX: 600000 instructions simulated : ctaid=(11,3,0) tid=(15,5,0)
GPGPU-Sim uArch: cycles simulated: 11000  inst.: 604224 (ipc=54.9) sim_rate=31801 (inst/sec) elapsed = 0:0:00:19 / Wed May 13 00:08:18 2015
GPGPU-Sim uArch: cycles simulated: 11500  inst.: 676832 (ipc=58.9) sim_rate=33841 (inst/sec) elapsed = 0:0:00:20 / Wed May 13 00:08:19 2015
GPGPU-Sim PTX: 700000 instructions simulated : ctaid=(4,4,0) tid=(15,3,0)
GPGPU-Sim PTX: 800000 instructions simulated : ctaid=(9,1,0) tid=(15,7,0)
GPGPU-Sim uArch: cycles simulated: 12000  inst.: 826848 (ipc=68.9) sim_rate=37584 (inst/sec) elapsed = 0:0:00:22 / Wed May 13 00:08:21 2015
GPGPU-Sim PTX: 900000 instructions simulated : ctaid=(11,1,0) tid=(15,3,0)
GPGPU-Sim uArch: cycles simulated: 12500  inst.: 971904 (ipc=77.8) sim_rate=42256 (inst/sec) elapsed = 0:0:00:23 / Wed May 13 00:08:22 2015
GPGPU-Sim PTX: 1000000 instructions simulated : ctaid=(14,0,0) tid=(15,7,0)
GPGPU-Sim PTX: 1100000 instructions simulated : ctaid=(0,0,0) tid=(15,7,0)
GPGPU-Sim uArch: cycles simulated: 13000  inst.: 1097568 (ipc=84.4) sim_rate=45732 (inst/sec) elapsed = 0:0:00:24 / Wed May 13 00:08:23 2015
GPGPU-Sim PTX: 1200000 instructions simulated : ctaid=(7,3,0) tid=(15,7,0)
GPGPU-Sim uArch: cycles simulated: 13500  inst.: 1200576 (ipc=88.9) sim_rate=48023 (inst/sec) elapsed = 0:0:00:25 / Wed May 13 00:08:24 2015
GPGPU-Sim PTX: 1300000 instructions simulated : ctaid=(6,3,0) tid=(15,1,0)
GPGPU-Sim PTX: 1400000 instructions simulated : ctaid=(2,3,0) tid=(15,7,0)
GPGPU-Sim uArch: cycles simulated: 14000  inst.: 1381952 (ipc=98.7) sim_rate=51183 (inst/sec) elapsed = 0:0:00:27 / Wed May 13 00:08:26 2015
GPGPU-Sim PTX: 1500000 instructions simulated : ctaid=(8,3,0) tid=(15,7,0)
GPGPU-Sim PTX: 1600000 instructions simulated : ctaid=(6,2,0) tid=(15,7,0)
GPGPU-Sim uArch: cycles simulated: 14500  inst.: 1592640 (ipc=109.8) sim_rate=54918 (inst/sec) elapsed = 0:0:00:29 / Wed May 13 00:08:28 2015
GPGPU-Sim PTX: 1700000 instructions simulated : ctaid=(2,3,0) tid=(15,1,0)
GPGPU-Sim PTX: 1800000 instructions simulated : ctaid=(4,4,0) tid=(15,5,0)
GPGPU-Sim uArch: cycles simulated: 15000  inst.: 1809504 (ipc=120.6) sim_rate=58371 (inst/sec) elapsed = 0:0:00:31 / Wed May 13 00:08:30 2015
GPGPU-Sim PTX: 1900000 instructions simulated : ctaid=(5,4,0) tid=(15,3,0)
GPGPU-Sim uArch: cycles simulated: 15500  inst.: 1929152 (ipc=124.5) sim_rate=58459 (inst/sec) elapsed = 0:0:00:33 / Wed May 13 00:08:32 2015
GPGPU-Sim PTX: 2000000 instructions simulated : ctaid=(4,4,0) tid=(15,7,0)
GPGPU-Sim uArch: cycles simulated: 16000  inst.: 2020832 (ipc=126.3) sim_rate=59436 (inst/sec) elapsed = 0:0:00:34 / Wed May 13 00:08:33 2015
GPGPU-Sim PTX: 2100000 instructions simulated : ctaid=(5,4,0) tid=(15,7,0)
GPGPU-Sim uArch: cycles simulated: 16500  inst.: 2087264 (ipc=126.5) sim_rate=59636 (inst/sec) elapsed = 0:0:00:35 / Wed May 13 00:08:34 2015
GPGPU-Sim PTX: 2200000 instructions simulated : ctaid=(12,2,0) tid=(15,7,0)
GPGPU-Sim uArch: cycles simulated: 17000  inst.: 2169632 (ipc=127.6) sim_rate=58638 (inst/sec) elapsed = 0:0:00:37 / Wed May 13 00:08:36 2015
GPGPU-Sim uArch: cycles simulated: 17500  inst.: 2230304 (ipc=127.4) sim_rate=58692 (inst/sec) elapsed = 0:0:00:38 / Wed May 13 00:08:37 2015
GPGPU-Sim PTX: 2300000 instructions simulated : ctaid=(9,4,0) tid=(15,7,0)
GPGPU-Sim uArch: cycles simulated: 18000  inst.: 2256672 (ipc=125.4) sim_rate=57863 (inst/sec) elapsed = 0:0:00:39 / Wed May 13 00:08:38 2015
GPGPU-Sim uArch: cycles simulated: 18500  inst.: 2332224 (ipc=126.1) sim_rate=58305 (inst/sec) elapsed = 0:0:00:40 / Wed May 13 00:08:39 2015
GPGPU-Sim PTX: 2400000 instructions simulated : ctaid=(3,2,0) tid=(15,5,0)
GPGPU-Sim uArch: cycles simulated: 19000  inst.: 2431712 (ipc=128.0) sim_rate=59310 (inst/sec) elapsed = 0:0:00:41 / Wed May 13 00:08:40 2015
GPGPU-Sim PTX: 2500000 instructions simulated : ctaid=(14,1,0) tid=(15,6,0)
GPGPU-Sim PTX: 2600000 instructions simulated : ctaid=(10,4,0) tid=(7,2,0)
GPGPU-Sim uArch: cycles simulated: 19500  inst.: 2591120 (ipc=132.9) sim_rate=60258 (inst/sec) elapsed = 0:0:00:43 / Wed May 13 00:08:42 2015
GPGPU-Sim PTX: 2700000 instructions simulated : ctaid=(13,3,0) tid=(7,5,0)
GPGPU-Sim PTX: 2800000 instructions simulated : ctaid=(9,4,0) tid=(11,0,0)
GPGPU-Sim uArch: cycles simulated: 20000  inst.: 2776980 (ipc=138.8) sim_rate=61710 (inst/sec) elapsed = 0:0:00:45 / Wed May 13 00:08:44 2015
GPGPU-Sim PTX: 2900000 instructions simulated : ctaid=(7,2,0) tid=(14,0,0)
GPGPU-Sim PTX: 3000000 instructions simulated : ctaid=(6,4,0) tid=(3,0,0)
GPGPU-Sim uArch: cycles simulated: 20500  inst.: 2925884 (ipc=142.7) sim_rate=62252 (inst/sec) elapsed = 0:0:00:47 / Wed May 13 00:08:46 2015
GPGPU-Sim PTX: 3100000 instructions simulated : ctaid=(1,4,0) tid=(7,0,0)
GPGPU-Sim uArch: cycles simulated: 21000  inst.: 3050072 (ipc=145.2) sim_rate=63543 (inst/sec) elapsed = 0:0:00:48 / Wed May 13 00:08:47 2015
GPGPU-Sim PTX: 3200000 instructions simulated : ctaid=(7,2,0) tid=(2,1,0)
GPGPU-Sim uArch: cycles simulated: 21500  inst.: 3144268 (ipc=146.2) sim_rate=64168 (inst/sec) elapsed = 0:0:00:49 / Wed May 13 00:08:48 2015
GPGPU-Sim uArch: cycles simulated: 22000  inst.: 3194924 (ipc=145.2) sim_rate=63898 (inst/sec) elapsed = 0:0:00:50 / Wed May 13 00:08:49 2015
GPGPU-Sim PTX: 3300000 instructions simulated : ctaid=(1,0,0) tid=(3,5,0)
GPGPU-Sim uArch: cycles simulated: 22500  inst.: 3251894 (ipc=144.5) sim_rate=63762 (inst/sec) elapsed = 0:0:00:51 / Wed May 13 00:08:50 2015
GPGPU-Sim PTX: 3400000 instructions simulated : ctaid=(7,3,0) tid=(4,2,0)
GPGPU-Sim uArch: cycles simulated: 23500  inst.: 3390294 (ipc=144.3) sim_rate=65197 (inst/sec) elapsed = 0:0:00:52 / Wed May 13 00:08:51 2015
GPGPU-Sim PTX: 3500000 instructions simulated : ctaid=(12,3,0) tid=(4,4,0)
GPGPU-Sim uArch: cycles simulated: 24000  inst.: 3480854 (ipc=145.0) sim_rate=64460 (inst/sec) elapsed = 0:0:00:54 / Wed May 13 00:08:53 2015
GPGPU-Sim PTX: 3600000 instructions simulated : ctaid=(10,3,0) tid=(4,6,0)
GPGPU-Sim uArch: cycles simulated: 25000  inst.: 3598934 (ipc=144.0) sim_rate=65435 (inst/sec) elapsed = 0:0:00:55 / Wed May 13 00:08:54 2015
GPGPU-Sim PTX: 3700000 instructions simulated : ctaid=(6,2,0) tid=(4,6,0)
GPGPU-Sim uArch: cycles simulated: 25500  inst.: 3661910 (ipc=143.6) sim_rate=65391 (inst/sec) elapsed = 0:0:00:56 / Wed May 13 00:08:55 2015
GPGPU-Sim PTX: 3800000 instructions simulated : ctaid=(3,4,0) tid=(4,4,0)
GPGPU-Sim uArch: cycles simulated: 26000  inst.: 3722210 (ipc=143.2) sim_rate=65301 (inst/sec) elapsed = 0:0:00:57 / Wed May 13 00:08:56 2015
GPGPU-Sim PTX: 3900000 instructions simulated : ctaid=(13,2,0) tid=(8,7,0)
GPGPU-Sim uArch: cycles simulated: 26500  inst.: 3811170 (ipc=143.8) sim_rate=65709 (inst/sec) elapsed = 0:0:00:58 / Wed May 13 00:08:57 2015
GPGPU-Sim uArch: cycles simulated: 27000  inst.: 3884619 (ipc=143.9) sim_rate=65841 (inst/sec) elapsed = 0:0:00:59 / Wed May 13 00:08:58 2015
GPGPU-Sim PTX: 4000000 instructions simulated : ctaid=(3,4,0) tid=(4,5,0)
GPGPU-Sim uArch: cycles simulated: 27500  inst.: 3990246 (ipc=145.1) sim_rate=66504 (inst/sec) elapsed = 0:0:01:00 / Wed May 13 00:08:59 2015
GPGPU-Sim PTX: 4100000 instructions simulated : ctaid=(14,3,0) tid=(9,0,0)
GPGPU-Sim PTX: 4200000 instructions simulated : ctaid=(10,4,0) tid=(7,0,0)
GPGPU-Sim uArch: cycles simulated: 28000  inst.: 4118877 (ipc=147.1) sim_rate=67522 (inst/sec) elapsed = 0:0:01:01 / Wed May 13 00:09:00 2015
GPGPU-Sim PTX: 4300000 instructions simulated : ctaid=(0,4,0) tid=(7,3,0)
GPGPU-Sim uArch: cycles simulated: 28500  inst.: 4241927 (ipc=148.8) sim_rate=67332 (inst/sec) elapsed = 0:0:01:03 / Wed May 13 00:09:02 2015
GPGPU-Sim PTX: 4400000 instructions simulated : ctaid=(1,0,0) tid=(3,1,0)
GPGPU-Sim uArch: cycles simulated: 29000  inst.: 4378811 (ipc=151.0) sim_rate=67366 (inst/sec) elapsed = 0:0:01:05 / Wed May 13 00:09:04 2015
GPGPU-Sim PTX: 4500000 instructions simulated : ctaid=(1,3,0) tid=(15,1,0)
GPGPU-Sim PTX: 4600000 instructions simulated : ctaid=(14,2,0) tid=(3,2,0)
GPGPU-Sim uArch: cycles simulated: 29500  inst.: 4491447 (ipc=152.3) sim_rate=68052 (inst/sec) elapsed = 0:0:01:06 / Wed May 13 00:09:05 2015
GPGPU-Sim PTX: 4700000 instructions simulated : ctaid=(7,2,0) tid=(3,4,0)
GPGPU-Sim uArch: cycles simulated: 30000  inst.: 4590519 (ipc=153.0) sim_rate=67507 (inst/sec) elapsed = 0:0:01:08 / Wed May 13 00:09:07 2015
GPGPU-Sim PTX: 4800000 instructions simulated : ctaid=(5,4,0) tid=(3,2,0)
GPGPU-Sim uArch: cycles simulated: 30500  inst.: 4691735 (ipc=153.8) sim_rate=67996 (inst/sec) elapsed = 0:0:01:09 / Wed May 13 00:09:08 2015
GPGPU-Sim PTX: 4900000 instructions simulated : ctaid=(2,2,0) tid=(9,7,0)
GPGPU-Sim uArch: cycles simulated: 31000  inst.: 4783428 (ipc=154.3) sim_rate=67372 (inst/sec) elapsed = 0:0:01:11 / Wed May 13 00:09:10 2015
GPGPU-Sim PTX: 5000000 instructions simulated : ctaid=(4,2,0) tid=(12,2,0)
GPGPU-Sim uArch: cycles simulated: 31500  inst.: 4889677 (ipc=155.2) sim_rate=67912 (inst/sec) elapsed = 0:0:01:12 / Wed May 13 00:09:11 2015
GPGPU-Sim PTX: 5100000 instructions simulated : ctaid=(0,4,0) tid=(0,0,0)
GPGPU-Sim uArch: cycles simulated: 32000  inst.: 4990841 (ipc=156.0) sim_rate=68367 (inst/sec) elapsed = 0:0:01:13 / Wed May 13 00:09:12 2015
GPGPU-Sim PTX: 5200000 instructions simulated : ctaid=(6,0,0) tid=(11,0,0)
GPGPU-Sim uArch: cycles simulated: 32500  inst.: 5086328 (ipc=156.5) sim_rate=68734 (inst/sec) elapsed = 0:0:01:14 / Wed May 13 00:09:13 2015
GPGPU-Sim PTX: 5300000 instructions simulated : ctaid=(9,2,0) tid=(15,6,0)
GPGPU-Sim uArch: cycles simulated: 33000  inst.: 5189851 (ipc=157.3) sim_rate=68287 (inst/sec) elapsed = 0:0:01:16 / Wed May 13 00:09:15 2015
GPGPU-Sim PTX: 5400000 instructions simulated : ctaid=(4,2,0) tid=(1,5,0)
GPGPU-Sim uArch: cycles simulated: 33500  inst.: 5295196 (ipc=158.1) sim_rate=68768 (inst/sec) elapsed = 0:0:01:17 / Wed May 13 00:09:16 2015
GPGPU-Sim PTX: 5500000 instructions simulated : ctaid=(0,0,0) tid=(9,7,0)
GPGPU-Sim uArch: cycles simulated: 34000  inst.: 5404526 (ipc=159.0) sim_rate=69288 (inst/sec) elapsed = 0:0:01:18 / Wed May 13 00:09:17 2015
GPGPU-Sim PTX: 5600000 instructions simulated : ctaid=(11,1,0) tid=(13,7,0)
GPGPU-Sim uArch: cycles simulated: 34500  inst.: 5506772 (ipc=159.6) sim_rate=69705 (inst/sec) elapsed = 0:0:01:19 / Wed May 13 00:09:18 2015
GPGPU-Sim PTX: 5700000 instructions simulated : ctaid=(7,3,0) tid=(15,6,0)
GPGPU-Sim uArch: cycles simulated: 35000  inst.: 5621782 (ipc=160.6) sim_rate=69404 (inst/sec) elapsed = 0:0:01:21 / Wed May 13 00:09:20 2015
GPGPU-Sim PTX: 5800000 instructions simulated : ctaid=(4,1,0) tid=(10,2,0)
GPGPU-Sim uArch: cycles simulated: 35500  inst.: 5732953 (ipc=161.5) sim_rate=69914 (inst/sec) elapsed = 0:0:01:22 / Wed May 13 00:09:21 2015
GPGPU-Sim PTX: 5900000 instructions simulated : ctaid=(0,3,0) tid=(5,5,0)
GPGPU-Sim PTX: 6000000 instructions simulated : ctaid=(6,3,0) tid=(14,5,0)
GPGPU-Sim uArch: cycles simulated: 36000  inst.: 5852710 (ipc=162.6) sim_rate=69675 (inst/sec) elapsed = 0:0:01:24 / Wed May 13 00:09:23 2015
GPGPU-Sim PTX: 6100000 instructions simulated : ctaid=(5,4,0) tid=(2,1,0)
GPGPU-Sim uArch: cycles simulated: 36500  inst.: 5963726 (ipc=163.4) sim_rate=69345 (inst/sec) elapsed = 0:0:01:26 / Wed May 13 00:09:25 2015
GPGPU-Sim PTX: 6200000 instructions simulated : ctaid=(11,0,0) tid=(13,4,0)
GPGPU-Sim uArch: cycles simulated: 37000  inst.: 6077201 (ipc=164.2) sim_rate=69852 (inst/sec) elapsed = 0:0:01:27 / Wed May 13 00:09:26 2015
GPGPU-Sim PTX: 6300000 instructions simulated : ctaid=(3,0,0) tid=(12,5,0)
GPGPU-Sim uArch: cycles simulated: 37500  inst.: 6211202 (ipc=165.6) sim_rate=70581 (inst/sec) elapsed = 0:0:01:28 / Wed May 13 00:09:27 2015
GPGPU-Sim PTX: 6400000 instructions simulated : ctaid=(3,0,0) tid=(1,1,0)
GPGPU-Sim uArch: cycles simulated: 38000  inst.: 6324266 (ipc=166.4) sim_rate=71059 (inst/sec) elapsed = 0:0:01:29 / Wed May 13 00:09:28 2015
GPGPU-Sim PTX: 6500000 instructions simulated : ctaid=(15,0,0) tid=(11,3,0)
GPGPU-Sim uArch: cycles simulated: 38500  inst.: 6415101 (ipc=166.6) sim_rate=70495 (inst/sec) elapsed = 0:0:01:31 / Wed May 13 00:09:30 2015
GPGPU-Sim PTX: 6600000 instructions simulated : ctaid=(7,4,0) tid=(7,7,0)
GPGPU-Sim uArch: cycles simulated: 39000  inst.: 6499755 (ipc=166.7) sim_rate=70649 (inst/sec) elapsed = 0:0:01:32 / Wed May 13 00:09:31 2015
GPGPU-Sim PTX: 6700000 instructions simulated : ctaid=(10,3,0) tid=(9,4,0)
GPGPU-Sim uArch: cycles simulated: 39500  inst.: 6592557 (ipc=166.9) sim_rate=70133 (inst/sec) elapsed = 0:0:01:34 / Wed May 13 00:09:33 2015
GPGPU-Sim PTX: 6800000 instructions simulated : ctaid=(4,1,0) tid=(4,2,0)
GPGPU-Sim uArch: cycles simulated: 40000  inst.: 6692343 (ipc=167.3) sim_rate=70445 (inst/sec) elapsed = 0:0:01:35 / Wed May 13 00:09:34 2015
GPGPU-Sim PTX: 6900000 instructions simulated : ctaid=(10,2,0) tid=(8,4,0)
GPGPU-Sim uArch: cycles simulated: 40500  inst.: 6778965 (ipc=167.4) sim_rate=69886 (inst/sec) elapsed = 0:0:01:37 / Wed May 13 00:09:36 2015
GPGPU-Sim PTX: 7000000 instructions simulated : ctaid=(9,4,0) tid=(4,1,0)
GPGPU-Sim uArch: cycles simulated: 41000  inst.: 6890898 (ipc=168.1) sim_rate=70315 (inst/sec) elapsed = 0:0:01:38 / Wed May 13 00:09:37 2015
GPGPU-Sim PTX: 7100000 instructions simulated : ctaid=(10,2,0) tid=(13,2,0)
GPGPU-Sim uArch: cycles simulated: 41500  inst.: 6989471 (ipc=168.4) sim_rate=69894 (inst/sec) elapsed = 0:0:01:40 / Wed May 13 00:09:39 2015
GPGPU-Sim PTX: 7200000 instructions simulated : ctaid=(3,0,0) tid=(10,2,0)
GPGPU-Sim uArch: cycles simulated: 42000  inst.: 7077055 (ipc=168.5) sim_rate=70069 (inst/sec) elapsed = 0:0:01:41 / Wed May 13 00:09:40 2015
GPGPU-Sim PTX: 7300000 instructions simulated : ctaid=(4,0,0) tid=(4,6,0)
GPGPU-Sim uArch: cycles simulated: 42500  inst.: 7170910 (ipc=168.7) sim_rate=70303 (inst/sec) elapsed = 0:0:01:42 / Wed May 13 00:09:41 2015
GPGPU-Sim PTX: 7400000 instructions simulated : ctaid=(10,1,0) tid=(1,3,0)
GPGPU-Sim uArch: cycles simulated: 43000  inst.: 7270497 (ipc=169.1) sim_rate=69908 (inst/sec) elapsed = 0:0:01:44 / Wed May 13 00:09:43 2015
GPGPU-Sim PTX: 7500000 instructions simulated : ctaid=(10,1,0) tid=(7,3,0)
GPGPU-Sim uArch: cycles simulated: 43500  inst.: 7372787 (ipc=169.5) sim_rate=70217 (inst/sec) elapsed = 0:0:01:45 / Wed May 13 00:09:44 2015
GPGPU-Sim PTX: 7600000 instructions simulated : ctaid=(10,2,0) tid=(6,3,0)
GPGPU-Sim uArch: cycles simulated: 44000  inst.: 7492461 (ipc=170.3) sim_rate=70683 (inst/sec) elapsed = 0:0:01:46 / Wed May 13 00:09:45 2015
GPGPU-Sim PTX: 7700000 instructions simulated : ctaid=(9,2,0) tid=(9,1,0)
GPGPU-Sim uArch: Shader 6 finished CTA #4 (44105,0), 4 CTAs running
GPGPU-Sim uArch: core:  6, cta: 4 initialized @(44106,0)
GPGPU-Sim uArch: cycles simulated: 44500  inst.: 7583149 (ipc=170.4) sim_rate=70870 (inst/sec) elapsed = 0:0:01:47 / Wed May 13 00:09:46 2015
GPGPU-Sim PTX: 7800000 instructions simulated : ctaid=(6,1,0) tid=(2,6,0)
GPGPU-Sim uArch: cycles simulated: 45000  inst.: 7678926 (ipc=170.6) sim_rate=70448 (inst/sec) elapsed = 0:0:01:49 / Wed May 13 00:09:48 2015
GPGPU-Sim PTX: 7900000 instructions simulated : ctaid=(5,2,0) tid=(1,1,0)
GPGPU-Sim uArch: cycles simulated: 45500  inst.: 7757712 (ipc=170.5) sim_rate=70524 (inst/sec) elapsed = 0:0:01:50 / Wed May 13 00:09:49 2015
GPGPU-Sim uArch: Shader 3 finished CTA #4 (45581,0), 4 CTAs running
GPGPU-Sim uArch: core:  3, cta: 4 initialized @(45582,0)
GPGPU-Sim PTX: 8000000 instructions simulated : ctaid=(6,2,0) tid=(6,5,0)
GPGPU-Sim uArch: cycles simulated: 46000  inst.: 7846511 (ipc=170.6) sim_rate=70058 (inst/sec) elapsed = 0:0:01:52 / Wed May 13 00:09:51 2015
GPGPU-Sim PTX: 8100000 instructions simulated : ctaid=(8,0,0) tid=(8,6,0)
GPGPU-Sim uArch: cycles simulated: 46500  inst.: 7931599 (ipc=170.6) sim_rate=69575 (inst/sec) elapsed = 0:0:01:54 / Wed May 13 00:09:53 2015
GPGPU-Sim PTX: 8200000 instructions simulated : ctaid=(8,1,0) tid=(1,1,0)
GPGPU-Sim uArch: cycles simulated: 47000  inst.: 8031441 (ipc=170.9) sim_rate=69838 (inst/sec) elapsed = 0:0:01:55 / Wed May 13 00:09:54 2015
GPGPU-Sim uArch: Shader 8 finished CTA #4 (47167,0), 4 CTAs running
GPGPU-Sim uArch: core:  8, cta: 4 initialized @(47168,0)
GPGPU-Sim PTX: 8300000 instructions simulated : ctaid=(4,0,0) tid=(7,0,0)
GPGPU-Sim uArch: cycles simulated: 47500  inst.: 8125735 (ipc=171.1) sim_rate=69450 (inst/sec) elapsed = 0:0:01:57 / Wed May 13 00:09:56 2015
GPGPU-Sim PTX: 8400000 instructions simulated : ctaid=(6,0,0) tid=(0,5,0)
GPGPU-Sim uArch: cycles simulated: 48000  inst.: 8217748 (ipc=171.2) sim_rate=69641 (inst/sec) elapsed = 0:0:01:58 / Wed May 13 00:09:57 2015
GPGPU-Sim uArch: Shader 1 finished CTA #4 (48155,0), 4 CTAs running
GPGPU-Sim uArch: core:  1, cta: 4 initialized @(48156,0)
GPGPU-Sim PTX: 8500000 instructions simulated : ctaid=(8,2,0) tid=(6,4,0)
GPGPU-Sim uArch: cycles simulated: 48500  inst.: 8308805 (ipc=171.3) sim_rate=69240 (inst/sec) elapsed = 0:0:02:00 / Wed May 13 00:09:59 2015
GPGPU-Sim PTX: 8600000 instructions simulated : ctaid=(5,1,0) tid=(5,4,0)
GPGPU-Sim uArch: cycles simulated: 49000  inst.: 8379023 (ipc=171.0) sim_rate=69248 (inst/sec) elapsed = 0:0:02:01 / Wed May 13 00:10:00 2015
GPGPU-Sim uArch: cycles simulated: 49500  inst.: 8463610 (ipc=171.0) sim_rate=69373 (inst/sec) elapsed = 0:0:02:02 / Wed May 13 00:10:01 2015
GPGPU-Sim PTX: 8700000 instructions simulated : ctaid=(0,1,0) tid=(5,7,0)
GPGPU-Sim uArch: Shader 7 finished CTA #4 (49607,0), 4 CTAs running
GPGPU-Sim uArch: core:  7, cta: 4 initialized @(49608,0)
GPGPU-Sim uArch: Shader 5 finished CTA #3 (49726,0), 4 CTAs running
GPGPU-Sim uArch: core:  5, cta: 3 initialized @(49727,0)
GPGPU-Sim uArch: Shader 5 finished CTA #4 (49741,0), 4 CTAs running
GPGPU-Sim uArch: core:  5, cta: 4 initialized @(49742,0)
GPGPU-Sim uArch: Shader 0 finished CTA #4 (49793,0), 4 CTAs running
GPGPU-Sim uArch: core:  0, cta: 4 initialized @(49794,0)
GPGPU-Sim uArch: cycles simulated: 50000  inst.: 8552691 (ipc=171.1) sim_rate=69534 (inst/sec) elapsed = 0:0:02:03 / Wed May 13 00:10:02 2015
GPGPU-Sim PTX: 8800000 instructions simulated : ctaid=(10,1,0) tid=(2,7,0)
GPGPU-Sim uArch: cycles simulated: 50500  inst.: 8642521 (ipc=171.1) sim_rate=69697 (inst/sec) elapsed = 0:0:02:04 / Wed May 13 00:10:03 2015
GPGPU-Sim uArch: Shader 1 finished CTA #2 (50604,0), 4 CTAs running
GPGPU-Sim uArch: core:  1, cta: 2 initialized @(50605,0)
GPGPU-Sim PTX: 8900000 instructions simulated : ctaid=(10,1,0) tid=(4,6,0)
GPGPU-Sim uArch: cycles simulated: 51000  inst.: 8726824 (ipc=171.1) sim_rate=69814 (inst/sec) elapsed = 0:0:02:05 / Wed May 13 00:10:04 2015
GPGPU-Sim PTX: 9000000 instructions simulated : ctaid=(6,0,0) tid=(4,0,0)
GPGPU-Sim uArch: cycles simulated: 51500  inst.: 8814712 (ipc=171.2) sim_rate=69958 (inst/sec) elapsed = 0:0:02:06 / Wed May 13 00:10:05 2015
GPGPU-Sim PTX: 9100000 instructions simulated : ctaid=(9,1,0) tid=(4,0,0)
GPGPU-Sim uArch: cycles simulated: 52000  inst.: 8920456 (ipc=171.5) sim_rate=70239 (inst/sec) elapsed = 0:0:02:07 / Wed May 13 00:10:06 2015
GPGPU-Sim PTX: 9200000 instructions simulated : ctaid=(15,4,0) tid=(15,0,0)
GPGPU-Sim uArch: Shader 8 finished CTA #3 (52278,0), 4 CTAs running
GPGPU-Sim uArch: core:  8, cta: 3 initialized @(52279,0)
GPGPU-Sim uArch: cycles simulated: 52500  inst.: 9023060 (ipc=171.9) sim_rate=70492 (inst/sec) elapsed = 0:0:02:08 / Wed May 13 00:10:07 2015
GPGPU-Sim PTX: 9300000 instructions simulated : ctaid=(10,1,0) tid=(3,1,0)
GPGPU-Sim uArch: cycles simulated: 53000  inst.: 9130005 (ipc=172.3) sim_rate=70775 (inst/sec) elapsed = 0:0:02:09 / Wed May 13 00:10:08 2015
GPGPU-Sim PTX: 9400000 instructions simulated : ctaid=(5,1,0) tid=(9,6,0)
GPGPU-Sim uArch: Shader 2 finished CTA #4 (53192,0), 4 CTAs running
GPGPU-Sim uArch: core:  2, cta: 4 initialized @(53193,0)
GPGPU-Sim uArch: cycles simulated: 53500  inst.: 9239604 (ipc=172.7) sim_rate=71073 (inst/sec) elapsed = 0:0:02:10 / Wed May 13 00:10:09 2015
GPGPU-Sim PTX: 9500000 instructions simulated : ctaid=(5,5,0) tid=(5,1,0)
GPGPU-Sim uArch: Shader 9 finished CTA #4 (53812,0), 4 CTAs running
GPGPU-Sim uArch: core:  9, cta: 4 initialized @(53813,0)
GPGPU-Sim uArch: cycles simulated: 54000  inst.: 9328442 (ipc=172.7) sim_rate=71209 (inst/sec) elapsed = 0:0:02:11 / Wed May 13 00:10:10 2015
GPGPU-Sim PTX: 9600000 instructions simulated : ctaid=(7,4,0) tid=(8,7,0)
GPGPU-Sim uArch: cycles simulated: 54500  inst.: 9436435 (ipc=173.1) sim_rate=71488 (inst/sec) elapsed = 0:0:02:12 / Wed May 13 00:10:11 2015
GPGPU-Sim PTX: 9700000 instructions simulated : ctaid=(7,2,0) tid=(10,6,0)
GPGPU-Sim uArch: Shader 4 finished CTA #4 (54792,0), 4 CTAs running
GPGPU-Sim uArch: core:  4, cta: 4 initialized @(54793,0)
GPGPU-Sim uArch: cycles simulated: 55000  inst.: 9535061 (ipc=173.4) sim_rate=71692 (inst/sec) elapsed = 0:0:02:13 / Wed May 13 00:10:12 2015
GPGPU-Sim PTX: 9800000 instructions simulated : ctaid=(3,5,0) tid=(14,5,0)
GPGPU-Sim uArch: cycles simulated: 55500  inst.: 9622327 (ipc=173.4) sim_rate=71276 (inst/sec) elapsed = 0:0:02:15 / Wed May 13 00:10:14 2015
GPGPU-Sim PTX: 9900000 instructions simulated : ctaid=(7,5,0) tid=(5,7,0)
GPGPU-Sim uArch: cycles simulated: 56000  inst.: 9712276 (ipc=173.4) sim_rate=71413 (inst/sec) elapsed = 0:0:02:16 / Wed May 13 00:10:15 2015
GPGPU-Sim uArch: Shader 2 finished CTA #3 (56163,0), 4 CTAs running
GPGPU-Sim uArch: core:  2, cta: 3 initialized @(56164,0)
GPGPU-Sim PTX: 10000000 instructions simulated : ctaid=(1,1,0) tid=(14,0,0)
GPGPU-Sim uArch: cycles simulated: 56500  inst.: 9797874 (ipc=173.4) sim_rate=71517 (inst/sec) elapsed = 0:0:02:17 / Wed May 13 00:10:16 2015
GPGPU-Sim PTX: 10100000 instructions simulated : ctaid=(4,1,0) tid=(12,5,0)
GPGPU-Sim uArch: Shader 2 finished CTA #2 (56846,0), 4 CTAs running
GPGPU-Sim uArch: core:  2, cta: 2 initialized @(56847,0)
GPGPU-Sim uArch: cycles simulated: 57000  inst.: 9886570 (ipc=173.4) sim_rate=71126 (inst/sec) elapsed = 0:0:02:19 / Wed May 13 00:10:18 2015
GPGPU-Sim PTX: 10200000 instructions simulated : ctaid=(7,4,0) tid=(8,6,0)
GPGPU-Sim uArch: cycles simulated: 57500  inst.: 9990509 (ipc=173.7) sim_rate=71360 (inst/sec) elapsed = 0:0:02:20 / Wed May 13 00:10:19 2015
GPGPU-Sim uArch: Shader 3 finished CTA #3 (57629,0), 4 CTAs running
GPGPU-Sim uArch: core:  3, cta: 3 initialized @(57630,0)
GPGPU-Sim PTX: 10300000 instructions simulated : ctaid=(6,4,0) tid=(10,2,0)
GPGPU-Sim uArch: Shader 3 finished CTA #2 (57708,0), 4 CTAs running
GPGPU-Sim uArch: core:  3, cta: 2 initialized @(57709,0)
GPGPU-Sim uArch: Shader 10 finished CTA #4 (57796,0), 4 CTAs running
GPGPU-Sim uArch: core: 10, cta: 4 initialized @(57797,0)
GPGPU-Sim uArch: cycles simulated: 58000  inst.: 10091850 (ipc=174.0) sim_rate=71069 (inst/sec) elapsed = 0:0:02:22 / Wed May 13 00:10:21 2015
GPGPU-Sim PTX: 10400000 instructions simulated : ctaid=(6,3,0) tid=(6,4,0)
GPGPU-Sim uArch: cycles simulated: 58500  inst.: 10198219 (ipc=174.3) sim_rate=71316 (inst/sec) elapsed = 0:0:02:23 / Wed May 13 00:10:22 2015
GPGPU-Sim PTX: 10500000 instructions simulated : ctaid=(6,1,0) tid=(13,7,0)
GPGPU-Sim uArch: cycles simulated: 59000  inst.: 10313080 (ipc=174.8) sim_rate=71124 (inst/sec) elapsed = 0:0:02:25 / Wed May 13 00:10:24 2015
GPGPU-Sim PTX: 10600000 instructions simulated : ctaid=(10,0,0) tid=(7,3,0)
GPGPU-Sim uArch: cycles simulated: 59500  inst.: 10409102 (ipc=174.9) sim_rate=70810 (inst/sec) elapsed = 0:0:02:27 / Wed May 13 00:10:26 2015
GPGPU-Sim PTX: 10700000 instructions simulated : ctaid=(9,5,0) tid=(1,5,0)
GPGPU-Sim uArch: Shader 7 finished CTA #3 (59778,0), 4 CTAs running
GPGPU-Sim uArch: core:  7, cta: 3 initialized @(59779,0)
GPGPU-Sim uArch: cycles simulated: 60000  inst.: 10511080 (ipc=175.2) sim_rate=71020 (inst/sec) elapsed = 0:0:02:28 / Wed May 13 00:10:27 2015
GPGPU-Sim PTX: 10800000 instructions simulated : ctaid=(7,5,0) tid=(5,1,0)
GPGPU-Sim uArch: Shader 6 finished CTA #3 (60459,0), 4 CTAs running
GPGPU-Sim uArch: core:  6, cta: 3 initialized @(60460,0)
GPGPU-Sim PTX: 10900000 instructions simulated : ctaid=(14,0,0) tid=(3,7,0)
GPGPU-Sim uArch: cycles simulated: 60500  inst.: 10619793 (ipc=175.5) sim_rate=70798 (inst/sec) elapsed = 0:0:02:30 / Wed May 13 00:10:29 2015
GPGPU-Sim uArch: Shader 0 finished CTA #3 (60544,0), 4 CTAs running
GPGPU-Sim uArch: core:  0, cta: 3 initialized @(60545,0)
GPGPU-Sim uArch: Shader 4 finished CTA #3 (60847,0), 4 CTAs running
GPGPU-Sim uArch: core:  4, cta: 3 initialized @(60848,0)
[...]
maxmrqlatency = 550 
maxdqlatency = 0 
maxmflatency = 1777 
averagemflatency = 235 
max_icnt2mem_latency = 1200 
max_icnt2sh_latency = 364002 
mrq_lat_table:13454 	1767 	1049 	1844 	4319 	3088 	2768 	2144 	240 	2 	0 	0 	0 	0 	0 	0 	0 	0 	0 	0 	0 	0 	0 	0 	0 	0 	0 	0 	0 	0 	0 	0 	
dq_lat_table:0 	0 	0 	0 	0 	0 	0 	0 	0 	0 	0 	0 	0 	0 	0 	0 	0 	0 	0 	0 	0 	0 	0 	0 	0 	0 	0 	0 	0 	0 	0 	0 	
mf_lat_table:0 	0 	0 	0 	0 	0 	0 	55305 	5115 	3977 	1512 	0 	0 	0 	0 	0 	0 	0 	0 	0 	0 	0 	0 	0 	0 	0 	0 	0 	0 	0 	0 	0 	
icnt2mem_lat_table:0 	0 	0 	82123 	17409 	10097 	9893 	1318 	2851 	580 	8 	0 	0 	0 	0 	0 	0 	0 	0 	0 	0 	0 	0 	0 	
icnt2sh_lat_table:0 	0 	0 	6568 	3875 	916 	42 	0 	0 	189 	441 	808 	2376 	2728 	1555 	4382 	7491 	16239 	18299 	0 	0 	0 	0 	0 	
mf_lat_pw_table:0 	0 	0 	0 	0 	0 	0 	695 	2 	21 	1 	0 	0 	0 	0 	0 	0 	0 	0 	0 	0 	0 	0 	0 	0 	0 	0 	0 	0 	0 	0 	0 	
maximum concurrent accesses to same row:
dram[0]:        28        36        28        32        32        32        58        36        36        32        36        28        28        34        32        32 
dram[1]:        36        32        32        36        24        20        38        38        32        32        32        28        20        22        40        44 
dram[2]:        32        36        28        24        24        26        32        42        36        32        28        35        57        32        32        32 
dram[3]:        36        32        32        36        24        25        28        44        28        32        32        28        24        23        34        44 
dram[4]:        32        36        28        32        32        32        50        36        36        32        35        32        32        32        39        32 
dram[5]:        36        32        32        36        24        20        29        29        32        32        32        28        20        36        40        44 
maximum service time to same row:
dram[0]:     51527     55582     56781     37168     72307     54776     53841     50612     46258     54459     69968     65620     79082    141516    103063     65705 
dram[1]:     36103     62406     72388    100830     85061     69191     49510     53794     50037     56041     54195     59423     77814    134472     71472     81092 
dram[2]:     79141     34663     43346     54153     68975     69280     54103     48977     54417     76645     83586     67610    129344    135254     93564     75242 
dram[3]:     58204     48015    107808     92760     68461     68584     46194     46825     56519     49394     80976     86961    110518    112540     66897     68678 
dram[4]:     49883     61422     38281     43555     66835     66920     45696     43876     47105     44984     65935     58628    106503    140166     63585     60801 
dram[5]:     49488     39400     91785     75688     63979     70834     44424     51384     46397     52319     52420     87486    117697    154616     65618     58869 
average row accesses per activate:
dram[0]:  5.685185  5.654545  7.657143  4.761905  4.690141  5.015385  5.890909  4.864865  4.687500  4.161290  5.843137  4.376471  4.873240  4.873240  7.741935  4.753623 
dram[1]:  4.753247  5.696429  5.363636  5.319149  3.800000  4.346667  4.277109  5.225806  3.745763  4.558442  3.886364  4.927536  4.044643  4.240964  4.461538  5.211538 
dram[2]:  6.488372  6.040000  5.787234  5.688889  3.714286  5.238095  4.358974  5.483333  5.406250  4.786667  4.892308  5.250000  8.242424  4.500000  6.571429  6.200000 
dram[3]:  6.063830  5.942307  7.606061  5.098039  4.754717  3.963415  5.111111  4.869565  4.642857  4.641026  4.455883  4.850746  7.388889  4.360465  4.892857  5.702127 
dram[4]:  6.173077  7.914286  5.711111  5.148148  4.653333  4.173333  6.000000  4.915493  3.763636  4.111111  5.083333  5.203125  4.505882  5.500000  6.790698  5.450980 
dram[5]:  5.293103  5.438597  4.754386  5.744186  3.384615  4.529412  4.045455  4.181818  4.109890  4.560000  4.466667  5.214286  4.101124  6.212766  6.000000  4.910714 
average row locality = 30675/6250 = 4.908000
number of total memory accesses made:
dram[0]:         0         0         0         0         0         0         0         0         0         0         0         0         0         0         0         0 
dram[1]:         0         0         0         0         0         0         0         0         0         0         0         0         0         0         0         0 
dram[2]:         0         0         0         0         0         0         0         0         0         0         0         0         0         0         0         0 
dram[3]:         0         0         0         0         0         0         0         0         0         0         0         0         0         0         0         0 
dram[4]:         0         0         0         0         0         0         0         0         0         0         0         0         0         0         0         0 
dram[5]:         0         0         0         0         0         0         0         0         0         0         0         0         0         0         0         0 
total accesses: 0
min_bank_accesses = 0!
min_chip_accesses = 0!
number of total read accesses:
dram[0]:       136       131       112       124       132       131       133       145       156       159       123       158       148       152       110       142 
dram[1]:       157       134       118       106       161       131       143       129       179       141       147       139       191       152       149       121 
dram[2]:       124       134       118       110       116       136       140       136       146       149       135       126       124       157       122       112 
dram[3]:       122       132       106       110       103       135       131       134       132       151       126       141       125       160       119       118 
dram[4]:       139       120       108       113       146       129       138       145       172       152       128       142       163       132       128       123 
dram[5]:       131       131       113       104       142       124       143       132       153       138       146       125       160       133       137       121 
total reads: 12931
bank skew: 191/103 = 1.85
chip skew: 2298/2045 = 1.12
number of total write accesses:
dram[0]:       171       180       156       176       201       195       191       215       219       228       175       214       198       194       130       186 
dram[1]:       209       185       177       144       238       195       212       195       263       210       195       201       262       200       199       150 
dram[2]:       155       168       154       146       170       194       200       193       200       210       183       168       148       212       154       136 
dram[3]:       163       177       145       150       149       190       191       202       193       211       177       184       141       215       155       150 
dram[4]:       182       157       149       165       203       184       204       204       242       218       177       191       220       154       164       155 
dram[5]:       176       179       158       143       210       184       213       190       221       204       189       167       205       159       175       154 
total reads: 17744
bank skew: 263/130 = 2.02
chip skew: 3235/2791 = 1.16
average mf latency per bank:
dram[0]:        538       425       547       504       480       453       603       542       525       489       642       520       559       555       653       489
dram[1]:        481       454       506       574       402       472       547       571       426       546       540       562       431       527       452       587
dram[2]:        455       459       526       501       455       429       507       507       491       467       540       577       621       462       512       566
dram[3]:        438       454       532       475       531       455       532       488       498       454       542       518       620       435       494       520
dram[4]:        470       448       530       513       431       478       525       517       441       500       600       559       480       658       523       563
dram[5]:        451       422       504       530       395       461       499       546       477       513       520       582       460       592       468       508
maximum mf latency per bank:
dram[0]:       1342      1198      1250      1304      1473      1277      1548      1354      1661      1294      1504      1381      1553      1410      1493      1393
dram[1]:       1777      1600      1506      1433      1348      1334      1450      1346      1444      1546      1300      1513      1595      1405      1560      1652
dram[2]:       1166      1215      1226      1296      1359      1375      1311      1453      1616      1322      1523      1522      1716      1717      1456      1580
dram[3]:       1213      1326      1053      1113      1311      1198      1359      1178      1221      1214      1254      1234      1345      1098      1160      1116
dram[4]:       1315      1280      1339      1289      1357      1392      1514      1526      1454      1352      1563      1531      1712      1741      1546      1428
dram[5]:       1292      1332      1210      1217      1153      1406      1261      1455      1244      1263      1100      1204      1166      1313      1186      1152

Number of Memory Banks Accessed per Memory Operation per Warp (from 0):
0	0	0	0	0	0	0	0	0	0	0	0	0	0	0	0	0	0	0	0	0	0	0	0	0	0	0	0	0	0	0	0	0	0	0	0	0	0	0	0	0	0	0	0	0	0	0	0	0	0	0	0	0	0	0	0	0	0	0	0	0	0	0	0	0	0	0	0	0	0	0	0	0	0	0	0	0	0	0	0	0	0	0	0	0	0	0	0	0	0	0	0	0	0	0	0	
Average # of Memory Banks Accessed per Memory Operation per Warp=-nan

position of mrq chosen
0	0	0	0	0	0	0	0	0	0	0	0	0	0	0	0	

average position of mrq chosen = -nan
Memory Partition 0: 
Cache L2_bank_000:
MSHR contents

Cache L2_bank_001:
MSHR contents

In Dram Latency Queue (total = 0): 
DRAM[0]: 16 bks, busW=4 BL=8 CL=12, tRRD=2 tCCD=6, tRCD=12 tRAS=28 tRP=12 tRC=40
n_cmd=480483 n_nop=468392 n_act=1023 n_pre=1007 n_req=5221 n_rd=4384 n_write=5677 bw_util=0.04188
n_activity=59393 dram_eff=0.3388
bk0: 272a 472861i bk1: 262a 473492i bk2: 224a 473701i bk3: 248a 473174i bk4: 264a 471842i bk5: 262a 472113i bk6: 266a 472692i bk7: 290a 471456i bk8: 312a 472228i bk9: 318a 471030i bk10: 246a 472641i bk11: 316a 470886i bk12: 296a 471374i bk13: 304a 471549i bk14: 220a 474221i bk15: 284a 472437i 
dram_util_bins: 0 0 0 0 0 0 0 0 0 0
dram_eff_bins: 0 0 0 0 0 0 0 0 0 0
mrqq: max=16 avg=0.462287
Memory Partition 1: 
Cache L2_bank_002:
MSHR contents

Cache L2_bank_003:
MSHR contents

In Dram Latency Queue (total = 0): 
DRAM[1]: 16 bks, busW=4 BL=8 CL=12, tRRD=2 tCCD=6, tRCD=12 tRAS=28 tRP=12 tRC=40
n_cmd=480483 n_nop=467362 n_act=1237 n_pre=1221 n_req=5533 n_rd=4596 n_write=6067 bw_util=0.04438
n_activity=63220 dram_eff=0.3373
bk0: 314a 471505i bk1: 268a 472515i bk2: 236a 472215i bk3: 212a 473428i bk4: 322a 470444i bk5: 262a 470958i bk6: 286a 470933i bk7: 258a 471965i bk8: 358a 469892i bk9: 282a 471518i bk10: 294a 471430i bk11: 278a 471679i bk12: 382a 468793i bk13: 304a 470837i bk14: 298a 471909i bk15: 242a 473520i 
dram_util_bins: 0 0 0 0 0 0 0 0 0 0
dram_eff_bins: 0 0 0 0 0 0 0 0 0 0
mrqq: max=16 avg=0.454339
Memory Partition 2: 
Cache L2_bank_004:
MSHR contents

Cache L2_bank_005:
MSHR contents

In Dram Latency Queue (total = 0): 
DRAM[2]: 16 bks, busW=4 BL=8 CL=12, tRRD=2 tCCD=6, tRCD=12 tRAS=28 tRP=12 tRC=40
n_cmd=480483 n_nop=469287 n_act=920 n_pre=904 n_req=4876 n_rd=4170 n_write=5202 bw_util=0.03901
n_activity=54226 dram_eff=0.3457
bk0: 248a 473526i bk1: 268a 473789i bk2: 236a 473375i bk3: 220a 473269i bk4: 232a 471916i bk5: 272a 471671i bk6: 280a 471275i bk7: 272a 472332i bk8: 292a 472308i bk9: 298a 471797i bk10: 270a 471561i bk11: 252a 472730i bk12: 248a 473183i bk13: 314a 470394i bk14: 244a 474077i bk15: 224a 474030i 
dram_util_bins: 0 0 0 0 0 0 0 0 0 0
dram_eff_bins: 0 0 0 0 0 0 0 0 0 0
mrqq: max=16 avg=0.441037
Memory Partition 3: 
Cache L2_bank_006:
MSHR contents

Cache L2_bank_007:
MSHR contents

In Dram Latency Queue (total = 0): 
DRAM[3]: 16 bks, busW=4 BL=8 CL=12, tRRD=2 tCCD=6, tRCD=12 tRAS=28 tRP=12 tRC=40
n_cmd=480483 n_nop=469305 n_act=958 n_pre=942 n_req=4838 n_rd=4090 n_write=5188 bw_util=0.03862
n_activity=53382 dram_eff=0.3476
bk0: 244a 473087i bk1: 264a 472315i bk2: 212a 473800i bk3: 220a 472511i bk4: 206a 472750i bk5: 270a 471436i bk6: 262a 471436i bk7: 268a 471357i bk8: 264a 472169i bk9: 302a 470912i bk10: 252a 471534i bk11: 282a 471489i bk12: 250a 473264i bk13: 320a 470484i bk14: 238a 472906i bk15: 236a 472663i 
dram_util_bins: 0 0 0 0 0 0 0 0 0 0
dram_eff_bins: 0 0 0 0 0 0 0 0 0 0
mrqq: max=16 avg=0.396205
Memory Partition 4: 
Cache L2_bank_008:
MSHR contents

Cache L2_bank_009:
MSHR contents

In Dram Latency Queue (total = 0): 
DRAM[4]: 16 bks, busW=4 BL=8 CL=12, tRRD=2 tCCD=6, tRCD=12 tRAS=28 tRP=12 tRC=40
n_cmd=480483 n_nop=468544 n_act=1019 n_pre=1003 n_req=5147 n_rd=4356 n_write=5561 bw_util=0.04128
n_activity=57650 dram_eff=0.344
bk0: 278a 473178i bk1: 240a 473789i bk2: 216a 473107i bk3: 226a 473103i bk4: 292a 471144i bk5: 258a 471103i bk6: 276a 472058i bk7: 290a 471600i bk8: 344a 470619i bk9: 304a 471099i bk10: 256a 471511i bk11: 284a 471475i bk12: 326a 470457i bk13: 264a 471811i bk14: 256a 472991i bk15: 246a 473203i 
dram_util_bins: 0 0 0 0 0 0 0 0 0 0
dram_eff_bins: 0 0 0 0 0 0 0 0 0 0
mrqq: max=16 avg=0.457086
Memory Partition 5: 
Cache L2_bank_010:
MSHR contents

Cache L2_bank_011:
MSHR contents

In Dram Latency Queue (total = 0): 
DRAM[5]: 16 bks, busW=4 BL=8 CL=12, tRRD=2 tCCD=6, tRCD=12 tRAS=28 tRP=12 tRC=40
n_cmd=480483 n_nop=468582 n_act=1093 n_pre=1077 n_req=5060 n_rd=4266 n_write=5465 bw_util=0.04051
n_activity=57431 dram_eff=0.3389
bk0: 262a 472726i bk1: 262a 472346i bk2: 226a 472989i bk3: 208a 473452i bk4: 284a 471336i bk5: 248a 472018i bk6: 286a 470587i bk7: 264a 471057i bk8: 306a 470802i bk9: 276a 471039i bk10: 292a 471509i bk11: 250a 472422i bk12: 320a 470764i bk13: 266a 472128i bk14: 274a 472560i bk15: 242a 473111i 
dram_util_bins: 0 0 0 0 0 0 0 0 0 0
dram_eff_bins: 0 0 0 0 0 0 0 0 0 0
mrqq: max=16 avg=0.400052

========= L2 cache stats =========
L2_cache_bank[0]: Access = 10121, Miss = 1050, Miss_rate = 0.104, Pending_hits = 37, Reservation_fails = 764
L2_cache_bank[1]: Access = 11432, Miss = 1142, Miss_rate = 0.100, Pending_hits = 27, Reservation_fails = 351
L2_cache_bank[2]: Access = 9424, Miss = 1245, Miss_rate = 0.132, Pending_hits = 36, Reservation_fails = 227
L2_cache_bank[3]: Access = 10616, Miss = 1053, Miss_rate = 0.099, Pending_hits = 50, Reservation_fails = 771
L2_cache_bank[4]: Access = 8672, Miss = 1025, Miss_rate = 0.118, Pending_hits = 18, Reservation_fails = 171
L2_cache_bank[5]: Access = 9902, Miss = 1060, Miss_rate = 0.107, Pending_hits = 32, Reservation_fails = 361
L2_cache_bank[6]: Access = 9973, Miss = 964, Miss_rate = 0.097, Pending_hits = 35, Reservation_fails = 392
L2_cache_bank[7]: Access = 10971, Miss = 1081, Miss_rate = 0.099, Pending_hits = 37, Reservation_fails = 282
L2_cache_bank[8]: Access = 10731, Miss = 1122, Miss_rate = 0.105, Pending_hits = 31, Reservation_fails = 1444
L2_cache_bank[9]: Access = 11030, Miss = 1056, Miss_rate = 0.096, Pending_hits = 24, Reservation_fails = 1626
L2_cache_bank[10]: Access = 10784, Miss = 1125, Miss_rate = 0.104, Pending_hits = 32, Reservation_fails = 372
L2_cache_bank[11]: Access = 10623, Miss = 1008, Miss_rate = 0.095, Pending_hits = 31, Reservation_fails = 318
L2_total_cache_accesses = 124279
L2_total_cache_misses = 12931
L2_total_cache_miss_rate = 0.1040
L2_total_cache_pending_hits = 390
L2_total_cache_reservation_fails = 7079
L2_total_cache_breakdown:
	L2_cache_stats_breakdown[GLOBAL_ACC_R][HIT] = 3814
	L2_cache_stats_breakdown[GLOBAL_ACC_R][HIT_RESERVED] = 7
	L2_cache_stats_breakdown[GLOBAL_ACC_R][MISS] = 106
	L2_cache_stats_breakdown[GLOBAL_ACC_R][RESERVATION_FAIL] = 171
	L2_cache_stats_breakdown[LOCAL_ACC_R][HIT] = 7176
	L2_cache_stats_breakdown[LOCAL_ACC_R][HIT_RESERVED] = 35
	L2_cache_stats_breakdown[LOCAL_ACC_R][MISS] = 233
	L2_cache_stats_breakdown[CONST_ACC_R][HIT] = 25
	L2_cache_stats_breakdown[CONST_ACC_R][HIT_RESERVED] = 3
	L2_cache_stats_breakdown[CONST_ACC_R][MISS] = 2
	L2_cache_stats_breakdown[CONST_ACC_R][RESERVATION_FAIL] = 205
	L2_cache_stats_breakdown[GLOBAL_ACC_W][HIT] = 5929
	L2_cache_stats_breakdown[GLOBAL_ACC_W][HIT_RESERVED] = 215
	L2_cache_stats_breakdown[GLOBAL_ACC_W][MISS] = 2048
	L2_cache_stats_breakdown[GLOBAL_ACC_W][RESERVATION_FAIL] = 110
	L2_cache_stats_breakdown[LOCAL_ACC_W][HIT] = 37071
	L2_cache_stats_breakdown[LOCAL_ACC_W][HIT_RESERVED] = 8
	L2_cache_stats_breakdown[LOCAL_ACC_W][MISS] = 9237
	L2_cache_stats_breakdown[LOCAL_ACC_W][RESERVATION_FAIL] = 2997
	L2_cache_stats_breakdown[L1_WRBK_ACC][HIT] = 3135
	L2_cache_stats_breakdown[L1_WRBK_ACC][MISS] = 1256
	L2_cache_stats_breakdown[INST_ACC_R][HIT] = 53808
	L2_cache_stats_breakdown[INST_ACC_R][HIT_RESERVED] = 122
	L2_cache_stats_breakdown[INST_ACC_R][MISS] = 49
	L2_cache_stats_breakdown[INST_ACC_R][RESERVATION_FAIL] = 3596
L2_cache_data_port_util = 0.098
L2_cache_fill_port_util = 0.012

icnt_total_pkts_mem_to_simt=381348
icnt_total_pkts_simt_to_mem=340180
LD_mem_lat_dist  0 0 0 0 0 0 0 0 0 0 0 0 0 0 0 0 0 0 0 0 0 0 0 0 0 0 0
ST_mem_lat_dist  0 0 0 0 0 0 0 0 0 0 0 0 0 0 0 0 0 0 0 0 0 0 0 0 0 0 0
----------------------------Interconnect-DETAILS--------------------------------
Class 0:
Packet latency average = 12.1206
	minimum = 6
	maximum = 556
Network latency average = 10.5576
	minimum = 6
	maximum = 527
Slowest packet = 940
Flit latency average = 9.28015
	minimum = 6
	maximum = 523
Slowest flit = 4305
Fragmentation average = 0.0942265
	minimum = 0
	maximum = 477
Injected packet rate average = 0.0248438
	minimum = 0.021585 (at node 7)
	maximum = 0.0303596 (at node 16)
Accepted packet rate average = 0.0248438
	minimum = 0.020813 (at node 7)
	maximum = 0.0314063 (at node 16)
Injected flit rate average = 0.0734149
	minimum = 0.0535847 (at node 7)
	maximum = 0.0986887 (at node 16)
Accepted flit rate average= 0.0734149
	minimum = 0.0676286 (at node 3)
	maximum = 0.0839636 (at node 16)
Injected packet length average = 2.95506
Accepted packet length average = 2.95506
Total in-flight flits = 0 (0 measured)
====== Overall Traffic Statistics ======
====== Traffic class 0 ======
Packet latency average = 12.1206 (1 samples)
	minimum = 6 (1 samples)
	maximum = 556 (1 samples)
Network latency average = 10.5576 (1 samples)
	minimum = 6 (1 samples)
	maximum = 527 (1 samples)
Flit latency average = 9.28015 (1 samples)
	minimum = 6 (1 samples)
	maximum = 523 (1 samples)
Fragmentation average = 0.0942265 (1 samples)
	minimum = 0 (1 samples)
	maximum = 477 (1 samples)
Injected packet rate average = 0.0248438 (1 samples)
	minimum = 0.021585 (1 samples)
	maximum = 0.0303596 (1 samples)
Accepted packet rate average = 0.0248438 (1 samples)
	minimum = 0.020813 (1 samples)
	maximum = 0.0314063 (1 samples)
Injected flit rate average = 0.0734149 (1 samples)
	minimum = 0.0535847 (1 samples)
	maximum = 0.0986887 (1 samples)
Accepted flit rate average = 0.0734149 (1 samples)
	minimum = 0.0676286 (1 samples)
	maximum = 0.0839636 (1 samples)
Injected packet size average = 2.95506 (1 samples)
Accepted packet size average = 2.95506 (1 samples)
Hops average = 1 (1 samples)
----------------------------END-of-Interconnect-DETAILS-------------------------


gpgpu_simulation_time = 0 days, 0 hrs, 12 min, 46 sec (766 sec)
gpgpu_simulation_rate = 81831 (inst/sec)
gpgpu_simulation_rate = 475 (cycle/sec)
GPGPU-Sim: synchronize waiting for inactive GPU simulation
GPGPU-Sim API: Stream Manager State
GPGPU-Sim: detected inactive GPU simulation thread

checksum=75ef40cb5b8e
Kernel Time: 765547.375000 
