

        *** GPGPU-Sim Simulator Version 3.2.2  [build 0] ***


GPGPU-Sim PTX: simulation mode 0 (can change with PTX_SIM_MODE_FUNC environment variable:
               1=functional simulation only, 0=detailed performance simulator)
GPGPU-Sim: Configuration options:

-network_mode                           1 # Interconnection network mode
-inter_config_file   config_fermi_islip.icnt # Interconnection network config file
-gpgpu_ptx_use_cuobjdump                    1 # Use cuobjdump to extract ptx and sass from binaries
-gpgpu_experimental_lib_support                    0 # Try to extract code from cuda libraries [Broken because of unknown cudaGetExportTable]
-gpgpu_ptx_convert_to_ptxplus                    0 # Convert SASS (native ISA) to ptxplus and run ptxplus
-gpgpu_ptx_force_max_capability                   20 # Force maximum compute capability
-gpgpu_ptx_inst_debug_to_file                    0 # Dump executed instructions' debug information to file
-gpgpu_ptx_inst_debug_file       inst_debug.txt # Executed instructions' debug output file
-gpgpu_ptx_inst_debug_thread_uid                    1 # Thread UID for executed instructions' debug output
-gpgpu_simd_model                       1 # 1 = post-dominator
-gpgpu_shader_core_pipeline              1536:32 # shader core pipeline config, i.e., {<nthread>:<warpsize>}
-gpgpu_tex_cache:l1  4:128:24,L:R:m:N:L,F:128:4,128:2 # per-shader L1 texture cache  (READ-ONLY) config  {<nsets>:<bsize>:<assoc>,<rep>:<wr>:<alloc>:<wr_alloc>,<mshr>:<N>:<merge>,<mq>:<rf>}
-gpgpu_const_cache:l1 64:64:2,L:R:f:N:L,A:2:32,4 # per-shader L1 constant memory cache  (READ-ONLY) config  {<nsets>:<bsize>:<assoc>,<rep>:<wr>:<alloc>:<wr_alloc>,<mshr>:<N>:<merge>,<mq>} 
-gpgpu_cache:il1     4:128:4,L:R:f:N:L,A:2:32,4 # shader L1 instruction cache config  {<nsets>:<bsize>:<assoc>,<rep>:<wr>:<alloc>:<wr_alloc>,<mshr>:<N>:<merge>,<mq>} 
-gpgpu_cache:dl1     32:128:4,L:L:m:N:H,A:32:8,8 # per-shader L1 data cache config  {<nsets>:<bsize>:<assoc>,<rep>:<wr>:<alloc>:<wr_alloc>,<mshr>:<N>:<merge>,<mq> | none}
-gpgpu_cache:dl1PrefL1                 none # per-shader L1 data cache config  {<nsets>:<bsize>:<assoc>,<rep>:<wr>:<alloc>:<wr_alloc>,<mshr>:<N>:<merge>,<mq> | none}
-gpgpu_cache:dl1PreShared                 none # per-shader L1 data cache config  {<nsets>:<bsize>:<assoc>,<rep>:<wr>:<alloc>:<wr_alloc>,<mshr>:<N>:<merge>,<mq> | none}
-gmem_skip_L1D                          0 # global memory access skip L1D cache (implements -Xptxas -dlcm=cg, default=no skip)
-gpgpu_perfect_mem                      0 # enable perfect memory mode (no cache miss)
-n_regfile_gating_group                    4 # group of lanes that should be read/written together)
-gpgpu_clock_gated_reg_file                    0 # enable clock gated reg file for power calculations
-gpgpu_clock_gated_lanes                    0 # enable clock gated lanes for power calculations
-gpgpu_shader_registers                32768 # Number of registers per shader core. Limits number of concurrent CTAs. (default 8192)
-gpgpu_shader_cta                       8 # Maximum number of concurrent CTAs in shader (default 8)
-gpgpu_num_cta_barriers                   16 # Maximum number of named barriers per CTA (default 16)
-gpgpu_n_clusters                      15 # number of processing clusters
-gpgpu_n_cores_per_cluster                    1 # number of simd cores per cluster
-gpgpu_n_cluster_ejection_buffer_size                    8 # number of packets in ejection buffer
-gpgpu_n_ldst_response_buffer_size                    2 # number of response packets in ld/st unit ejection buffer
-gpgpu_shmem_size                   16384 # Size of shared memory per shader core (default 16kB)
-gpgpu_shmem_size                   49152 # Size of shared memory per shader core (default 16kB)
-gpgpu_shmem_size_PrefL1                16384 # Size of shared memory per shader core (default 16kB)
-gpgpu_shmem_size_PrefShared                16384 # Size of shared memory per shader core (default 16kB)
-gpgpu_shmem_num_banks                   32 # Number of banks in the shared memory in each shader core (default 16)
-gpgpu_shmem_limited_broadcast                    0 # Limit shared memory to do one broadcast per cycle (default on)
-gpgpu_shmem_warp_parts                    1 # Number of portions a warp is divided into for shared memory bank conflict check 
-gpgpu_warpdistro_shader                   -1 # Specify which shader core to collect the warp size distribution from
-gpgpu_warp_issue_shader                    0 # Specify which shader core to collect the warp issue distribution from
-gpgpu_local_mem_map                    1 # Mapping from local memory space address to simulated GPU physical address space (default = enabled)
-gpgpu_num_reg_banks                   16 # Number of register banks (default = 8)
-gpgpu_reg_bank_use_warp_id                    0 # Use warp ID in mapping registers to banks (default = off)
-gpgpu_operand_collector_num_units_sp                    6 # number of collector units (default = 4)
-gpgpu_operand_collector_num_units_sfu                    8 # number of collector units (default = 4)
-gpgpu_operand_collector_num_units_mem                    2 # number of collector units (default = 2)
-gpgpu_operand_collector_num_units_gen                    0 # number of collector units (default = 0)
-gpgpu_operand_collector_num_in_ports_sp                    2 # number of collector unit in ports (default = 1)
-gpgpu_operand_collector_num_in_ports_sfu                    1 # number of collector unit in ports (default = 1)
-gpgpu_operand_collector_num_in_ports_mem                    1 # number of collector unit in ports (default = 1)
-gpgpu_operand_collector_num_in_ports_gen                    0 # number of collector unit in ports (default = 0)
-gpgpu_operand_collector_num_out_ports_sp                    2 # number of collector unit in ports (default = 1)
-gpgpu_operand_collector_num_out_ports_sfu                    1 # number of collector unit in ports (default = 1)
-gpgpu_operand_collector_num_out_ports_mem                    1 # number of collector unit in ports (default = 1)
-gpgpu_operand_collector_num_out_ports_gen                    0 # number of collector unit in ports (default = 0)
-gpgpu_coalesce_arch                   13 # Coalescing arch (default = 13, anything else is off for now)
-gpgpu_num_sched_per_core                    1 # Number of warp schedulers per core
-gpgpu_max_insn_issue_per_warp                    1 # Max number of instructions that can be issued per warp in one cycle by scheduler
-gpgpu_simt_core_sim_order                    1 # Select the simulation order of cores in a cluster (0=Fix, 1=Round-Robin)
-gpgpu_pipeline_widths        2,1,1,2,1,1,2 # Pipeline widths ID_OC_SP,ID_OC_SFU,ID_OC_MEM,OC_EX_SP,OC_EX_SFU,OC_EX_MEM,EX_WB
-gpgpu_num_sp_units                     2 # Number of SP units (default=1)
-gpgpu_num_sfu_units                    1 # Number of SF units (default=1)
-gpgpu_num_mem_units                    1 # Number if ldst units (default=1) WARNING: not hooked up to anything
-gpgpu_scheduler                      gto # Scheduler configuration: < lrr | gto | two_level_active > If two_level_active:<num_active_warps>:<inner_prioritization>:<outer_prioritization>For complete list of prioritization values see shader.h enum scheduler_prioritization_typeDefault: gto
-gpgpu_dram_scheduler                    1 # 0 = fifo, 1 = FR-FCFS (defaul)
-gpgpu_dram_partition_queues              8:8:8:8 # i2$:$2d:d2$:$2i
-l2_ideal                               0 # Use a ideal L2 cache that always hit
-gpgpu_cache:dl2     64:128:8,L:B:m:W:L,A:32:4,4:0,32 # unified banked L2 data cache config  {<nsets>:<bsize>:<assoc>,<rep>:<wr>:<alloc>:<wr_alloc>,<mshr>:<N>:<merge>,<mq>}
-gpgpu_cache:dl2_texture_only                    0 # L2 cache used for texture only
-gpgpu_n_mem                            6 # number of memory modules (e.g. memory controllers) in gpu
-gpgpu_n_sub_partition_per_mchannel                    2 # number of memory subpartition in each memory module
-gpgpu_n_mem_per_ctrlr                    2 # number of memory chips per memory controller
-gpgpu_memlatency_stat                   14 # track and display latency statistics 0x2 enables MC, 0x4 enables queue logs
-gpgpu_frfcfs_dram_sched_queue_size                   16 # 0 = unlimited (default); # entries per chip
-gpgpu_dram_return_queue_size                  116 # 0 = unlimited (default); # entries per chip
-gpgpu_dram_buswidth                    4 # default = 4 bytes (8 bytes per cycle at DDR)
-gpgpu_dram_burst_length                    8 # Burst length of each DRAM request (default = 4 data bus cycle)
-dram_data_command_freq_ratio                    4 # Frequency ratio between DRAM data bus and command bus (default = 2 times, i.e. DDR)
-gpgpu_dram_timing_opt nbk=16:CCD=2:RRD=6:RCD=12:RAS=28:RP=12:RC=40: CL=12:WL=4:CDLR=5:WR=12:nbkgrp=4:CCDL=3:RTPL=2 # DRAM timing parameters = {nbk:tCCD:tRRD:tRCD:tRAS:tRP:tRC:CL:WL:tCDLR:tWR:nbkgrp:tCCDL:tRTPL}
-rop_latency                          120 # ROP queue latency (default 85)
-dram_latency                         100 # DRAM latency (default 30)
-gpgpu_mem_addr_mapping dramid@8;00000000.00000000.00000000.00000000.0000RRRR.RRRRRRRR.BBBCCCCB.CCSSSSSS # mapping memory address to dram model {dramid@<start bit>;<memory address map>}
-gpgpu_mem_addr_test                    0 # run sweep test to check address mapping for aliased address
-gpgpu_mem_address_mask                    1 # 0 = old addressing mask, 1 = new addressing mask, 2 = new add. mask + flipped bank sel and chip sel bits
-gpuwattch_xml_file  gpuwattch_gtx480.xml # GPUWattch XML file
-power_simulation_enabled                    1 # Turn on power simulator (1=On, 0=Off)
-power_per_cycle_dump                    0 # Dump detailed power output each cycle
-power_trace_enabled                    0 # produce a file for the power trace (1=On, 0=Off)
-power_trace_zlevel                     6 # Compression level of the power trace output log (0=no comp, 9=highest)
-steady_power_levels_enabled                    0 # produce a file for the steady power levels (1=On, 0=Off)
-steady_state_definition                  8:4 # allowed deviation:number of samples
-gpgpu_max_cycle                        0 # terminates gpu simulation early (0 = no limit)
-gpgpu_max_insn                         0 # terminates gpu simulation early (0 = no limit)
-gpgpu_max_cta                          0 # terminates gpu simulation early (0 = no limit)
-gpgpu_runtime_stat                   500 # display runtime statistics such as dram utilization {<freq>:<flag>}
-liveness_message_freq                    1 # Minimum number of seconds between simulation liveness messages (0 = always print)
-gpgpu_flush_l1_cache                    0 # Flush L1 cache at the end of each kernel call
-gpgpu_flush_l2_cache                    0 # Flush L2 cache at the end of each kernel call
-gpgpu_deadlock_detect                    1 # Stop the simulation at deadlock (1=on (default), 0=off)
-gpgpu_ptx_instruction_classification                    0 # if enabled will classify ptx instruction types per kernel (Max 255 kernels now)
-gpgpu_ptx_sim_mode                     0 # Select between Performance (default) or Functional simulation (1)
-gpgpu_clock_domains 700.0:700.0:700.0:924.0 # Clock Domain Frequencies in MhZ {<Core Clock>:<ICNT Clock>:<L2 Clock>:<DRAM Clock>}
-gpgpu_max_concurrent_kernel                    8 # maximum kernels that can run concurrently on GPU
-gpgpu_cflog_interval                    0 # Interval between each snapshot in control flow logger
-visualizer_enabled                     0 # Turn on visualizer output (1=On, 0=Off)
-visualizer_outputfile                 NULL # Specifies the output log file for visualizer
-visualizer_zlevel                      6 # Compression level of the visualizer output log (0=no comp, 9=highest)
-trace_enabled                          0 # Turn on traces
-trace_components                    none # comma seperated list of traces to enable. Complete list found in trace_streams.tup. Default none
-trace_sampling_core                    0 # The core which is printed using CORE_DPRINTF. Default 0
-trace_sampling_memory_partition                   -1 # The memory partition which is printed using MEMPART_DPRINTF. Default -1 (i.e. all)
-enable_ptx_file_line_stats                    1 # Turn on PTX source line statistic profiling. (1 = On)
-ptx_line_stats_filename gpgpu_inst_stats.txt # Output file for PTX source line statistics.
-save_embedded_ptx                      0 # saves ptx files embedded in binary as <n>.ptx
-keep                                   0 # keep intermediate files created by GPGPU-Sim when interfacing with external programs
-gpgpu_ptx_save_converted_ptxplus                    0 # Saved converted ptxplus to a file
-ptx_opcode_latency_int         4,13,4,5,145 # Opcode latencies for integers <ADD,MAX,MUL,MAD,DIV>Default 1,1,19,25,145
-ptx_opcode_latency_fp          4,13,4,5,39 # Opcode latencies for single precision floating points <ADD,MAX,MUL,MAD,DIV>Default 1,1,1,1,30
-ptx_opcode_latency_dp         8,19,8,8,330 # Opcode latencies for double precision floating points <ADD,MAX,MUL,MAD,DIV>Default 8,8,8,8,335
-ptx_opcode_initiation_int            1,2,2,1,8 # Opcode initiation intervals for integers <ADD,MAX,MUL,MAD,DIV>Default 1,1,4,4,32
-ptx_opcode_initiation_fp            1,2,1,1,4 # Opcode initiation intervals for single precision floating points <ADD,MAX,MUL,MAD,DIV>Default 1,1,1,1,5
-ptx_opcode_initiation_dp         8,16,8,8,130 # Opcode initiation intervals for double precision floating points <ADD,MAX,MUL,MAD,DIV>Default 8,8,8,8,130
DRAM Timing Options:
nbk                                    16 # number of banks
CCD                                     2 # column to column delay
RRD                                     6 # minimal delay between activation of rows in different banks
RCD                                    12 # row to column delay
RAS                                    28 # time needed to activate row
RP                                     12 # time needed to precharge (deactivate) row
RC                                     40 # row cycle time
CDLR                                    5 # switching from write to read (changes tWTR)
WR                                     12 # last data-in to row precharge
CL                                     12 # CAS latency
WL                                      4 # Write latency
nbkgrp                                  4 # number of bank groups
CCDL                                    3 # column to column delay between accesses to different bank groups
RTPL                                    2 # read to precharge delay between accesses to different bank groups
Total number of memory sub partition = 12
addr_dec_mask[CHIP]  = 0000000000000000 	high:64 low:0
addr_dec_mask[BK]    = 000000000000e100 	high:16 low:8
addr_dec_mask[ROW]   = 000000000fff0000 	high:28 low:16
addr_dec_mask[COL]   = 0000000000001eff 	high:13 low:0
addr_dec_mask[BURST] = 000000000000003f 	high:6 low:0
sub_partition_id_mask = 0000000000000100
GPGPU-Sim uArch: clock freqs: 700000000.000000:700000000.000000:700000000.000000:924000000.000000
GPGPU-Sim uArch: clock periods: 0.00000000142857142857:0.00000000142857142857:0.00000000142857142857:0.00000000108225108225
*** Initializing Memory Statistics ***
GPGPU-Sim uArch: interconnect node map (shaderID+MemID to icntID)
GPGPU-Sim uArch: Memory nodes ID start from index: 15
GPGPU-Sim uArch:    0   1   2   3   4
GPGPU-Sim uArch:    5   6   7   8   9
GPGPU-Sim uArch:   10  11  12  13  14
GPGPU-Sim uArch:   15  16  17  18  19
GPGPU-Sim uArch:   20  21  22  23  24
GPGPU-Sim uArch:   25  26
GPGPU-Sim uArch: interconnect node reverse map (icntID to shaderID+MemID)
GPGPU-Sim uArch: Memory nodes start from ID: 15
GPGPU-Sim uArch:    0   1   2   3   4
GPGPU-Sim uArch:    5   6   7   8   9
GPGPU-Sim uArch:   10  11  12  13  14
GPGPU-Sim uArch:   15  16  17  18  19
GPGPU-Sim uArch:   20  21  22  23  24
GPGPU-Sim uArch:   25  26
185d153370a1c7baba053f5ed71cf285  /home/kishore/project_source/gpu_class_proj/gpgpusim-benchmarks-master/bin/release/STO
GPGPU-Sim uArch: performance model initialization complete.
GPGPU-Sim PTX: __cudaRegisterFatBinary, fat_cubin_handle = 1, filename=main.cu
self exe links to: /home/kishore/project_source/gpu_class_proj/gpgpusim-benchmarks-master/bin/release/STO
Running md5sum using "md5sum /home/kishore/project_source/gpu_class_proj/gpgpusim-benchmarks-master/bin/release/STO "
Running cuobjdump using "$CUDA_INSTALL_PATH/bin/cuobjdump -ptx -elf -sass /home/kishore/project_source/gpu_class_proj/gpgpusim-benchmarks-master/bin/release/STO > _cuobjdump_complete_output_TzqhGA"
Parsing file _cuobjdump_complete_output_TzqhGA
######### cuobjdump parser ########
## Adding new section PTX
Adding ptx filename: _cuobjdump_1.ptx
Adding arch: sm_10
Adding identifier: main.cu
## Adding new section ELF
Adding arch: sm_10
Adding identifier: main.cu
## Adding new section ELF
Adding arch: sm_20
Adding identifier: main.cu
## Adding new section PTX
Adding ptx filename: _cuobjdump_2.ptx
Adding arch: sm_20
Adding identifier: main.cu
## Adding new section PTX
Adding ptx filename: _cuobjdump_3.ptx
Adding arch: sm_10
Adding identifier: storeGPU.cu
## Adding new section ELF
Adding arch: sm_10
Adding identifier: storeGPU.cu
## Adding new section ELF
Adding arch: sm_20
Adding identifier: storeGPU.cu
## Adding new section PTX
Adding ptx filename: _cuobjdump_4.ptx
Adding arch: sm_20
Adding identifier: storeGPU.cu
Done parsing!!!
GPGPU-Sim PTX: __cudaRegisterFatBinary, fat_cubin_handle = 2, filename=storeGPU.cu
GPGPU-Sim PTX: __cudaRegisterFunction _Z12sha1_overlapPhiiiiS_ : hostFun 0x0x407f90, fat_cubin_handle = 2
GPGPU-Sim PTX: allocating stack frame region for .param "__cudaretf__Z14macroRFunctioniPj" from 0x0 to 0x8
GPGPU-Sim PTX: allocating stack frame region for .param "__cudaparmf1__Z14macroRFunctioniPj" from 0x8 to 0xc
GPGPU-Sim PTX: allocating stack frame region for .param "__cudaparmf2__Z14macroRFunctioniPj" from 0xc to 0x14
GPGPU-Sim PTX: instruction assembly for function '_Z14macroRFunctioniPj'...   done.
GPGPU-Sim PTX: finding reconvergence points for '_Z14macroRFunctioniPj'...
GPGPU-Sim PTX: Finding dominators for '_Z14macroRFunctioniPj'...
GPGPU-Sim PTX: Finding immediate dominators for '_Z14macroRFunctioniPj'...
GPGPU-Sim PTX: Finding postdominators for '_Z14macroRFunctioniPj'...
GPGPU-Sim PTX: Finding immediate postdominators for '_Z14macroRFunctioniPj'...
GPGPU-Sim PTX: pre-decoding instructions for '_Z14macroRFunctioniPj'...
GPGPU-Sim PTX: reconvergence points for _Z14macroRFunctioniPj...
GPGPU-Sim PTX: ... end of reconvergence points for _Z14macroRFunctioniPj
GPGPU-Sim PTX: ... done pre-decoding instructions for '_Z14macroRFunctioniPj'.
GPGPU-Sim PTX: allocating shared region for "__cuda___cuda_local_var_36043_40_non_const_sharedMemory32" from 0x0 to 0x3f80 (shared memory space)
GPGPU-Sim PTX: instruction assembly for function '_Z3md5PhiiiS_'...   done.
GPGPU-Sim PTX: finding reconvergence points for '_Z3md5PhiiiS_'...
GPGPU-Sim PTX: Finding dominators for '_Z3md5PhiiiS_'...
GPGPU-Sim PTX: Finding immediate dominators for '_Z3md5PhiiiS_'...
GPGPU-Sim PTX: Finding postdominators for '_Z3md5PhiiiS_'...
GPGPU-Sim PTX: Finding immediate postdominators for '_Z3md5PhiiiS_'...
GPGPU-Sim PTX: pre-decoding instructions for '_Z3md5PhiiiS_'...
GPGPU-Sim PTX: reconvergence points for _Z3md5PhiiiS_...
GPGPU-Sim PTX:  1 (potential) branch divergence @  PC=0x190 (_2.ptx:127) @%p1 bra $Lt_1_4866;
GPGPU-Sim PTX:    immediate post dominator      @  PC=0x21f0 (_2.ptx:1283) exit;
GPGPU-Sim PTX:  2 (potential) branch divergence @  PC=0x198 (_2.ptx:128) bra.uni $LBB20__Z3md5PhiiiS_;
GPGPU-Sim PTX:    immediate post dominator      @  PC=0x21f0 (_2.ptx:1283) exit;
GPGPU-Sim PTX:  3 (potential) branch divergence @  PC=0x1f0 (_2.ptx:141) @%p3 bra $Lt_1_5634;
GPGPU-Sim PTX:    immediate post dominator      @  PC=0x290 (_2.ptx:167) shr.s32 %r23, %r15, 31;
GPGPU-Sim PTX:  4 (potential) branch divergence @  PC=0x200 (_2.ptx:143) @!%p2 bra $Lt_1_5378;
GPGPU-Sim PTX:    immediate post dominator      @  PC=0x290 (_2.ptx:167) shr.s32 %r23, %r15, 31;
GPGPU-Sim PTX:  5 (potential) branch divergence @  PC=0x278 (_2.ptx:161) @%p4 bra $Lt_1_6402;
GPGPU-Sim PTX:    immediate post dominator      @  PC=0x280 (_2.ptx:162) bra.uni $Lt_1_5378;
GPGPU-Sim PTX:  6 (potential) branch divergence @  PC=0x280 (_2.ptx:162) bra.uni $Lt_1_5378;
GPGPU-Sim PTX:    immediate post dominator      @  PC=0x290 (_2.ptx:167) shr.s32 %r23, %r15, 31;
GPGPU-Sim PTX:  7 (potential) branch divergence @  PC=0x2d0 (_2.ptx:175) @%p5 bra $Lt_1_8706;
GPGPU-Sim PTX:    immediate post dominator      @  PC=0x2198 (_2.ptx:1270) mul.lo.s32 %r234, %r5, 4;
GPGPU-Sim PTX:  8 (potential) branch divergence @  PC=0x4e8 (_2.ptx:257) @%p6 bra $Lt_1_7938;
GPGPU-Sim PTX:    immediate post dominator      @  PC=0x560 (_2.ptx:281) ld.shared.u8 %r69, [%rd20+0];
GPGPU-Sim PTX:  9 (potential) branch divergence @  PC=0x520 (_2.ptx:267) bra.uni $Lt_1_7682;
GPGPU-Sim PTX:    immediate post dominator      @  PC=0x560 (_2.ptx:281) ld.shared.u8 %r69, [%rd20+0];
GPGPU-Sim PTX: 10 (potential) branch divergence @  PC=0x2180 (_2.ptx:1264) @%p7 bra $Lt_1_7426;
GPGPU-Sim PTX:    immediate post dominator      @  PC=0x2188 (_2.ptx:1265) bra.uni $Lt_1_6914;
GPGPU-Sim PTX: 11 (potential) branch divergence @  PC=0x2188 (_2.ptx:1265) bra.uni $Lt_1_6914;
GPGPU-Sim PTX:    immediate post dominator      @  PC=0x2198 (_2.ptx:1270) mul.lo.s32 %r234, %r5, 4;
GPGPU-Sim PTX: ... end of reconvergence points for _Z3md5PhiiiS_
GPGPU-Sim PTX: ... done pre-decoding instructions for '_Z3md5PhiiiS_'.
GPGPU-Sim PTX: allocating shared region for "__cuda___cuda_local_var_36078_40_non_const_sharedMemory16320" from 0x0 to 0x3f80 (shared memory space)
GPGPU-Sim PTX: instruction assembly for function '_Z11md5_overlapPhiiiiS_'...   done.
GPGPU-Sim PTX: finding reconvergence points for '_Z11md5_overlapPhiiiiS_'...
GPGPU-Sim PTX: Finding dominators for '_Z11md5_overlapPhiiiiS_'...
GPGPU-Sim PTX: Finding immediate dominators for '_Z11md5_overlapPhiiiiS_'...
GPGPU-Sim PTX: Finding postdominators for '_Z11md5_overlapPhiiiiS_'...
GPGPU-Sim PTX: Finding immediate postdominators for '_Z11md5_overlapPhiiiiS_'...
GPGPU-Sim PTX: pre-decoding instructions for '_Z11md5_overlapPhiiiiS_'...
GPGPU-Sim PTX: reconvergence points for _Z11md5_overlapPhiiiiS_...
GPGPU-Sim PTX:  1 (potential) branch divergence @  PC=0x2230 (_2.ptx:1308) @%p1 bra $Lt_2_5634;
GPGPU-Sim PTX:    immediate post dominator      @  PC=0x43e8 (_2.ptx:2510) exit;
GPGPU-Sim PTX:  2 (potential) branch divergence @  PC=0x2238 (_2.ptx:1309) bra.uni $LBB23__Z11md5_overlapPhiiiiS_;
GPGPU-Sim PTX:    immediate post dominator      @  PC=0x43e8 (_2.ptx:2510) exit;
GPGPU-Sim PTX:  3 (potential) branch divergence @  PC=0x22b0 (_2.ptx:1326) @%p3 bra $Lt_2_9730;
GPGPU-Sim PTX:    immediate post dominator      @  PC=0x4390 (_2.ptx:2497) mul.lo.s32 %r260, %r5, 4;
GPGPU-Sim PTX:  4 (potential) branch divergence @  PC=0x2440 (_2.ptx:1378) @%p4 bra $Lt_2_7170;
GPGPU-Sim PTX:    immediate post dominator      @  PC=0x2768 (_2.ptx:1510) ld.shared.u8 %r95, [%rd15+0];
GPGPU-Sim PTX:  5 (potential) branch divergence @  PC=0x2488 (_2.ptx:1387) @%p5 bra $Lt_2_9986;
GPGPU-Sim PTX:    immediate post dominator      @  PC=0x2520 (_2.ptx:1411) mov.s32 %r62, 13;
GPGPU-Sim PTX:  6 (potential) branch divergence @  PC=0x2500 (_2.ptx:1405) @%p6 bra $Lt_2_7938;
GPGPU-Sim PTX:    immediate post dominator      @  PC=0x2508 (_2.ptx:1406) mov.s32 %r61, %r52;
GPGPU-Sim PTX:  7 (potential) branch divergence @  PC=0x2510 (_2.ptx:1407) bra.uni $Lt_2_7426;
GPGPU-Sim PTX:    immediate post dominator      @  PC=0x2520 (_2.ptx:1411) mov.s32 %r62, 13;
GPGPU-Sim PTX:  8 (potential) branch divergence @  PC=0x2540 (_2.ptx:1415) @%p7 bra $Lt_2_8450;
GPGPU-Sim PTX:    immediate post dominator      @  PC=0x25e0 (_2.ptx:1440) mov.u32 %r72, 128;
GPGPU-Sim PTX:  9 (potential) branch divergence @  PC=0x25d8 (_2.ptx:1437) @%p8 bra $Lt_2_8962;
GPGPU-Sim PTX:    immediate post dominator      @  PC=0x25e0 (_2.ptx:1440) mov.u32 %r72, 128;
GPGPU-Sim PTX: 10 (potential) branch divergence @  PC=0x2640 (_2.ptx:1454) bra.uni $Lt_2_6914;
GPGPU-Sim PTX:    immediate post dominator      @  PC=0x2768 (_2.ptx:1510) ld.shared.u8 %r95, [%rd15+0];
GPGPU-Sim PTX: 11 (potential) branch divergence @  PC=0x4378 (_2.ptx:2491) @%p9 bra $Lt_2_6658;
GPGPU-Sim PTX:    immediate post dominator      @  PC=0x4380 (_2.ptx:2492) bra.uni $Lt_2_6146;
GPGPU-Sim PTX: 12 (potential) branch divergence @  PC=0x4380 (_2.ptx:2492) bra.uni $Lt_2_6146;
GPGPU-Sim PTX:    immediate post dominator      @  PC=0x4390 (_2.ptx:2497) mul.lo.s32 %r260, %r5, 4;
GPGPU-Sim PTX: ... end of reconvergence points for _Z11md5_overlapPhiiiiS_
GPGPU-Sim PTX: ... done pre-decoding instructions for '_Z11md5_overlapPhiiiiS_'.
GPGPU-Sim PTX: allocating shared region for "__cuda___cuda_local_var_36930_40_non_const_sharedMemory32608" from 0x0 to 0x3f80 (shared memory space)
GPGPU-Sim PTX: instruction assembly for function '_Z4sha1PhiiiS_'...   done.
GPGPU-Sim PTX: finding reconvergence points for '_Z4sha1PhiiiS_'...
GPGPU-Sim PTX: Finding dominators for '_Z4sha1PhiiiS_'...
GPGPU-Sim PTX: Finding immediate dominators for '_Z4sha1PhiiiS_'...
GPGPU-Sim PTX: Finding postdominators for '_Z4sha1PhiiiS_'...
GPGPU-Sim PTX: Finding immediate postdominators for '_Z4sha1PhiiiS_'...
GPGPU-Sim PTX: pre-decoding instructions for '_Z4sha1PhiiiS_'...
GPGPU-Sim PTX: reconvergence points for _Z4sha1PhiiiS_...
GPGPU-Sim PTX:  1 (potential) branch divergence @  PC=0x4428 (_2.ptx:2534) @%p1 bra $Lt_3_4866;
GPGPU-Sim PTX:    immediate post dominator      @  PC=0x9018 (_2.ptx:5165) exit;
GPGPU-Sim PTX:  2 (potential) branch divergence @  PC=0x4430 (_2.ptx:2535) bra.uni $LBB20__Z4sha1PhiiiS_;
GPGPU-Sim PTX:    immediate post dominator      @  PC=0x9018 (_2.ptx:5165) exit;
GPGPU-Sim PTX:  3 (potential) branch divergence @  PC=0x4488 (_2.ptx:2548) @%p3 bra $Lt_3_5634;
GPGPU-Sim PTX:    immediate post dominator      @  PC=0x4528 (_2.ptx:2574) shr.u32 %r23, %r15, 6;
GPGPU-Sim PTX:  4 (potential) branch divergence @  PC=0x4498 (_2.ptx:2550) @!%p2 bra $Lt_3_5378;
GPGPU-Sim PTX:    immediate post dominator      @  PC=0x4528 (_2.ptx:2574) shr.u32 %r23, %r15, 6;
GPGPU-Sim PTX:  5 (potential) branch divergence @  PC=0x4510 (_2.ptx:2568) @%p4 bra $Lt_3_6402;
GPGPU-Sim PTX:    immediate post dominator      @  PC=0x4518 (_2.ptx:2569) bra.uni $Lt_3_5378;
GPGPU-Sim PTX:  6 (potential) branch divergence @  PC=0x4518 (_2.ptx:2569) bra.uni $Lt_3_5378;
GPGPU-Sim PTX:    immediate post dominator      @  PC=0x4528 (_2.ptx:2574) shr.u32 %r23, %r15, 6;
GPGPU-Sim PTX:  7 (potential) branch divergence @  PC=0x4548 (_2.ptx:2578) @%p5 bra $Lt_3_8706;
GPGPU-Sim PTX:    immediate post dominator      @  PC=0x8fc0 (_2.ptx:5152) mul.lo.s32 %r748, %r5, 4;
GPGPU-Sim PTX:  8 (potential) branch divergence @  PC=0x4730 (_2.ptx:2654) @%p6 bra $Lt_3_7938;
GPGPU-Sim PTX:    immediate post dominator      @  PC=0x4820 (_2.ptx:2693) ld.shared.u8 %r69, [%rd21+3];
GPGPU-Sim PTX:  9 (potential) branch divergence @  PC=0x47e0 (_2.ptx:2679) bra.uni $Lt_3_7682;
GPGPU-Sim PTX:    immediate post dominator      @  PC=0x4820 (_2.ptx:2693) ld.shared.u8 %r69, [%rd21+3];
GPGPU-Sim PTX: 10 (potential) branch divergence @  PC=0x8fa8 (_2.ptx:5146) @%p7 bra $Lt_3_7426;
GPGPU-Sim PTX:    immediate post dominator      @  PC=0x8fb0 (_2.ptx:5147) bra.uni $Lt_3_6914;
GPGPU-Sim PTX: 11 (potential) branch divergence @  PC=0x8fb0 (_2.ptx:5147) bra.uni $Lt_3_6914;
GPGPU-Sim PTX:    immediate post dominator      @  PC=0x8fc0 (_2.ptx:5152) mul.lo.s32 %r748, %r5, 4;
GPGPU-Sim PTX: ... end of reconvergence points for _Z4sha1PhiiiS_
GPGPU-Sim PTX: ... done pre-decoding instructions for '_Z4sha1PhiiiS_'.
GPGPU-Sim PTX: allocating shared region for "__cuda___cuda_local_var_36962_40_non_const_sharedMemory48896" from 0x0 to 0x3f80 (shared memory space)
GPGPU-Sim PTX: instruction assembly for function '_Z12sha1_overlapPhiiiiS_'...   done.
GPGPU-Sim PTX: finding reconvergence points for '_Z12sha1_overlapPhiiiiS_'...
GPGPU-Sim PTX: Finding dominators for '_Z12sha1_overlapPhiiiiS_'...
GPGPU-Sim PTX: Finding immediate dominators for '_Z12sha1_overlapPhiiiiS_'...
GPGPU-Sim PTX: Finding postdominators for '_Z12sha1_overlapPhiiiiS_'...
GPGPU-Sim PTX: Finding immediate postdominators for '_Z12sha1_overlapPhiiiiS_'...
GPGPU-Sim PTX: pre-decoding instructions for '_Z12sha1_overlapPhiiiiS_'...
GPGPU-Sim PTX: reconvergence points for _Z12sha1_overlapPhiiiiS_...
GPGPU-Sim PTX:  1 (potential) branch divergence @  PC=0x9058 (_2.ptx:5190) @%p1 bra $Lt_4_5634;
GPGPU-Sim PTX:    immediate post dominator      @  PC=0xde28 (_2.ptx:7884) exit;
GPGPU-Sim PTX:  2 (potential) branch divergence @  PC=0x9060 (_2.ptx:5191) bra.uni $LBB23__Z12sha1_overlapPhiiiiS_;
GPGPU-Sim PTX:    immediate post dominator      @  PC=0xde28 (_2.ptx:7884) exit;
GPGPU-Sim PTX:  3 (potential) branch divergence @  PC=0x90b8 (_2.ptx:5204) @%p3 bra $Lt_4_9730;
GPGPU-Sim PTX:    immediate post dominator      @  PC=0xddd0 (_2.ptx:7871) mul.lo.s32 %r783, %r5, 4;
GPGPU-Sim PTX:  4 (potential) branch divergence @  PC=0x9288 (_2.ptx:5264) @%p4 bra $Lt_4_7170;
GPGPU-Sim PTX:    immediate post dominator      @  PC=0x9628 (_2.ptx:5411) ld.shared.u8 %r101, [%rd15+3];
GPGPU-Sim PTX:  5 (potential) branch divergence @  PC=0x92d0 (_2.ptx:5273) @%p5 bra $Lt_4_9986;
GPGPU-Sim PTX:    immediate post dominator      @  PC=0x9368 (_2.ptx:5297) mov.s32 %r59, 13;
GPGPU-Sim PTX:  6 (potential) branch divergence @  PC=0x9348 (_2.ptx:5291) @%p6 bra $Lt_4_7938;
GPGPU-Sim PTX:    immediate post dominator      @  PC=0x9350 (_2.ptx:5292) mov.s32 %r58, %r49;
GPGPU-Sim PTX:  7 (potential) branch divergence @  PC=0x9358 (_2.ptx:5293) bra.uni $Lt_4_7426;
GPGPU-Sim PTX:    immediate post dominator      @  PC=0x9368 (_2.ptx:5297) mov.s32 %r59, 13;
GPGPU-Sim PTX:  8 (potential) branch divergence @  PC=0x9388 (_2.ptx:5301) @%p7 bra $Lt_4_8450;
GPGPU-Sim PTX:    immediate post dominator      @  PC=0x9428 (_2.ptx:5326) mov.u32 %r69, 128;
GPGPU-Sim PTX:  9 (potential) branch divergence @  PC=0x9420 (_2.ptx:5323) @%p8 bra $Lt_4_8962;
GPGPU-Sim PTX:    immediate post dominator      @  PC=0x9428 (_2.ptx:5326) mov.u32 %r69, 128;
GPGPU-Sim PTX: 10 (potential) branch divergence @  PC=0x9500 (_2.ptx:5355) bra.uni $Lt_4_6914;
GPGPU-Sim PTX:    immediate post dominator      @  PC=0x9628 (_2.ptx:5411) ld.shared.u8 %r101, [%rd15+3];
GPGPU-Sim PTX: 11 (potential) branch divergence @  PC=0xddb8 (_2.ptx:7865) @%p9 bra $Lt_4_6658;
GPGPU-Sim PTX:    immediate post dominator      @  PC=0xddc0 (_2.ptx:7866) bra.uni $Lt_4_6146;
GPGPU-Sim PTX: 12 (potential) branch divergence @  PC=0xddc0 (_2.ptx:7866) bra.uni $Lt_4_6146;
GPGPU-Sim PTX:    immediate post dominator      @  PC=0xddd0 (_2.ptx:7871) mul.lo.s32 %r783, %r5, 4;
GPGPU-Sim PTX: ... end of reconvergence points for _Z12sha1_overlapPhiiiiS_
GPGPU-Sim PTX: ... done pre-decoding instructions for '_Z12sha1_overlapPhiiiiS_'.
GPGPU-Sim PTX: allocating global region for "md5_padding" from 0x100 to 0x140 (global memory space)
GPGPU-Sim PTX: allocating global region for "sha1_padding" from 0x140 to 0x180 (global memory space)
GPGPU-Sim PTX: finished parsing EMBEDDED .ptx file _2.ptx
Adding _cuobjdump_4.ptx with cubin handle 2
GPGPU-Sim PTX: extracting embedded .ptx to temporary file "_ptx_Z1yOt3"
Running: cat _ptx_Z1yOt3 | sed 's/.version 1.5/.version 1.4/' | sed 's/, texmode_independent//' | sed 's/\(\.extern \.const\[1\] .b8 \w\+\)\[\]/\1\[1\]/' | sed 's/const\[.\]/const\[0\]/g' > _ptx2_h4pwhw
GPGPU-Sim PTX: generating ptxinfo using "$CUDA_INSTALL_PATH/bin/ptxas --gpu-name=sm_20 -v _ptx2_h4pwhw --output-file  /dev/null 2> _ptx_Z1yOt3info"
GPGPU-Sim PTX: Kernel '_Z12sha1_overlapPhiiiiS_' : regs=47, lmem=0, smem=16256, cmem=80
GPGPU-Sim PTX: Kernel '_Z4sha1PhiiiS_' : regs=45, lmem=0, smem=16256, cmem=80
GPGPU-Sim PTX: Kernel '_Z11md5_overlapPhiiiiS_' : regs=42, lmem=0, smem=16256, cmem=80
GPGPU-Sim PTX: Kernel '_Z3md5PhiiiS_' : regs=42, lmem=0, smem=16256, cmem=80
GPGPU-Sim PTX: removing ptxinfo using "rm -f _ptx_Z1yOt3 _ptx2_h4pwhw _ptx_Z1yOt3info"
GPGPU-Sim PTX: loading globals with explicit initializers... 
GPGPU-Sim PTX:     initializing 'md5_padding' ...  wrote 64 bytes
GPGPU-Sim PTX:     initializing 'sha1_padding' ...  wrote 64 bytes
GPGPU-Sim PTX: finished loading globals (128 bytes total).
GPGPU-Sim PTX: loading constants with explicit initializers...  done.
GPGPU-Sim PTX: __cudaRegisterFunction _Z4sha1PhiiiS_ : hostFun 0x0x408050, fat_cubin_handle = 2
GPGPU-Sim PTX: __cudaRegisterFunction _Z11md5_overlapPhiiiiS_ : hostFun 0x0x408140, fat_cubin_handle = 2
GPGPU-Sim PTX: __cudaRegisterFunction _Z3md5PhiiiS_ : hostFun 0x0x408200, fat_cubin_handle = 2
GPGPU-Sim PTX: __cudaRegisterVar: hostVar = 0x6ad440; deviceAddress = md5_padding; deviceName = md5_padding
GPGPU-Sim PTX: __cudaRegisterVar: Registering const memory space of 64 bytes
GPGPU-Sim PTX registering global md5_padding hostVar to name mapping
GPGPU-Sim PTX: __cudaRegisterVar: hostVar = 0x6ad480; deviceAddress = sha1_padding; deviceName = sha1_padding
GPGPU-Sim PTX: __cudaRegisterVar: Registering const memory space of 64 bytes
GPGPU-Sim PTX registering global sha1_padding hostVar to name mapping
Shared Memory Enabled
Pinned Memory Enabled
Reduced Hash Size Enabled
Running SHA1 Overlap Test..
SHA1 Overlap Test


== GPU Execution Context ==
Threads       : 128
Blocks        : 384
Total Threads : 49152
Total size    : 196656
Chunk Size    : 52
Padding       : 0


GPGPU-Sim PTX: cudaLaunch for 0x0x407f90 (mode=performance simulation) on stream 0
GPGPU-Sim PTX: pushing kernel '_Z12sha1_overlapPhiiiiS_' to stream 0, gridDim= (384,1,1) blockDim = (128,1,1) 
kernel '_Z12sha1_overlapPhiiiiS_' transfer to GPU hardware scheduler
GPGPU-Sim uArch: Shader 1 bind to kernel 1 '_Z12sha1_overlapPhiiiiS_'
GPGPU-Sim uArch: CTA/core = 3, limited by: shmem
GPGPU-Sim uArch: core:  1, cta: 0 initialized @(1,0)
GPGPU-Sim uArch: Shader 2 bind to kernel 1 '_Z12sha1_overlapPhiiiiS_'
GPGPU-Sim uArch: core:  2, cta: 0 initialized @(1,0)
GPGPU-Sim uArch: Shader 3 bind to kernel 1 '_Z12sha1_overlapPhiiiiS_'
GPGPU-Sim uArch: core:  3, cta: 0 initialized @(1,0)
GPGPU-Sim uArch: Shader 4 bind to kernel 1 '_Z12sha1_overlapPhiiiiS_'
GPGPU-Sim uArch: core:  4, cta: 0 initialized @(1,0)
GPGPU-Sim uArch: Shader 5 bind to kernel 1 '_Z12sha1_overlapPhiiiiS_'
GPGPU-Sim uArch: core:  5, cta: 0 initialized @(1,0)
GPGPU-Sim uArch: Shader 6 bind to kernel 1 '_Z12sha1_overlapPhiiiiS_'
GPGPU-Sim uArch: core:  6, cta: 0 initialized @(1,0)
GPGPU-Sim uArch: Shader 7 bind to kernel 1 '_Z12sha1_overlapPhiiiiS_'
GPGPU-Sim uArch: core:  7, cta: 0 initialized @(1,0)
GPGPU-Sim uArch: Shader 8 bind to kernel 1 '_Z12sha1_overlapPhiiiiS_'
GPGPU-Sim uArch: core:  8, cta: 0 initialized @(1,0)
GPGPU-Sim uArch: Shader 9 bind to kernel 1 '_Z12sha1_overlapPhiiiiS_'
GPGPU-Sim uArch: core:  9, cta: 0 initialized @(1,0)
GPGPU-Sim uArch: Shader 10 bind to kernel 1 '_Z12sha1_overlapPhiiiiS_'
GPGPU-Sim uArch: core: 10, cta: 0 initialized @(1,0)
GPGPU-Sim uArch: Shader 11 bind to kernel 1 '_Z12sha1_overlapPhiiiiS_'
GPGPU-Sim uArch: core: 11, cta: 0 initialized @(1,0)
GPGPU-Sim uArch: Shader 12 bind to kernel 1 '_Z12sha1_overlapPhiiiiS_'
GPGPU-Sim uArch: core: 12, cta: 0 initialized @(1,0)
GPGPU-Sim uArch: Shader 13 bind to kernel 1 '_Z12sha1_overlapPhiiiiS_'
GPGPU-Sim uArch: core: 13, cta: 0 initialized @(1,0)
GPGPU-Sim uArch: Shader 14 bind to kernel 1 '_Z12sha1_overlapPhiiiiS_'
GPGPU-Sim uArch: core: 14, cta: 0 initialized @(1,0)
GPGPU-Sim uArch: Shader 0 bind to kernel 1 '_Z12sha1_overlapPhiiiiS_'
GPGPU-Sim uArch: core:  0, cta: 0 initialized @(1,0)
GPGPU-Sim uArch: core:  1, cta: 1 initialized @(2,0)
GPGPU-Sim uArch: core:  2, cta: 1 initialized @(2,0)
GPGPU-Sim uArch: core:  3, cta: 1 initialized @(2,0)
GPGPU-Sim uArch: core:  4, cta: 1 initialized @(2,0)
GPGPU-Sim uArch: core:  5, cta: 1 initialized @(2,0)
GPGPU-Sim uArch: core:  6, cta: 1 initialized @(2,0)
GPGPU-Sim uArch: core:  7, cta: 1 initialized @(2,0)
GPGPU-Sim uArch: core:  8, cta: 1 initialized @(2,0)
GPGPU-Sim uArch: core:  9, cta: 1 initialized @(2,0)
GPGPU-Sim uArch: core: 10, cta: 1 initialized @(2,0)
GPGPU-Sim uArch: core: 11, cta: 1 initialized @(2,0)
GPGPU-Sim uArch: core: 12, cta: 1 initialized @(2,0)
GPGPU-Sim uArch: core: 13, cta: 1 initialized @(2,0)
GPGPU-Sim uArch: core: 14, cta: 1 initialized @(2,0)
GPGPU-Sim uArch: core:  0, cta: 1 initialized @(2,0)
GPGPU-Sim uArch: core:  1, cta: 2 initialized @(3,0)
GPGPU-Sim uArch: core:  2, cta: 2 initialized @(3,0)
GPGPU-Sim uArch: core:  3, cta: 2 initialized @(3,0)
GPGPU-Sim uArch: core:  4, cta: 2 initialized @(3,0)
GPGPU-Sim uArch: core:  5, cta: 2 initialized @(3,0)
GPGPU-Sim uArch: core:  6, cta: 2 initialized @(3,0)
GPGPU-Sim uArch: core:  7, cta: 2 initialized @(3,0)
GPGPU-Sim uArch: core:  8, cta: 2 initialized @(3,0)
GPGPU-Sim uArch: core:  9, cta: 2 initialized @(3,0)
GPGPU-Sim uArch: core: 10, cta: 2 initialized @(3,0)
GPGPU-Sim uArch: core: 11, cta: 2 initialized @(3,0)
GPGPU-Sim uArch: core: 12, cta: 2 initialized @(3,0)
GPGPU-Sim uArch: core: 13, cta: 2 initialized @(3,0)
GPGPU-Sim uArch: core: 14, cta: 2 initialized @(3,0)
GPGPU-Sim uArch: core:  0, cta: 2 initialized @(3,0)
GPGPU-Sim uArch: cycles simulated: 500  inst.: 28800 (ipc=57.6) sim_rate=7200 (inst/sec) elapsed = 0:0:00:04 / Fri May 15 12:00:53 2015
GPGPU-Sim PTX: 100000 instructions simulated : ctaid=(33,0,0) tid=(95,0,0)
GPGPU-Sim uArch: cycles simulated: 1000  inst.: 103136 (ipc=103.1) sim_rate=17189 (inst/sec) elapsed = 0:0:00:06 / Fri May 15 12:00:55 2015
GPGPU-Sim PTX: 200000 instructions simulated : ctaid=(38,0,0) tid=(31,0,0)
GPGPU-Sim uArch: cycles simulated: 1500  inst.: 231840 (ipc=154.6) sim_rate=28980 (inst/sec) elapsed = 0:0:00:08 / Fri May 15 12:00:57 2015
GPGPU-Sim PTX: 300000 instructions simulated : ctaid=(28,0,0) tid=(95,0,0)
GPGPU-Sim uArch: cycles simulated: 2000  inst.: 338688 (ipc=169.3) sim_rate=33868 (inst/sec) elapsed = 0:0:00:10 / Fri May 15 12:00:59 2015
GPGPU-Sim PTX: 400000 instructions simulated : ctaid=(33,0,0) tid=(127,0,0)
GPGPU-Sim uArch: cycles simulated: 2500  inst.: 432000 (ipc=172.8) sim_rate=36000 (inst/sec) elapsed = 0:0:00:12 / Fri May 15 12:01:01 2015
GPGPU-Sim uArch: cycles simulated: 3000  inst.: 483840 (ipc=161.3) sim_rate=37218 (inst/sec) elapsed = 0:0:00:13 / Fri May 15 12:01:02 2015
GPGPU-Sim PTX: 500000 instructions simulated : ctaid=(3,0,0) tid=(95,0,0)
GPGPU-Sim uArch: cycles simulated: 3500  inst.: 564928 (ipc=161.4) sim_rate=37661 (inst/sec) elapsed = 0:0:00:15 / Fri May 15 12:01:04 2015
GPGPU-Sim PTX: 600000 instructions simulated : ctaid=(23,0,0) tid=(127,0,0)
GPGPU-Sim uArch: cycles simulated: 4000  inst.: 651488 (ipc=162.9) sim_rate=38322 (inst/sec) elapsed = 0:0:00:17 / Fri May 15 12:01:06 2015
GPGPU-Sim PTX: 700000 instructions simulated : ctaid=(27,0,0) tid=(95,0,0)
GPGPU-Sim PTX: 800000 instructions simulated : ctaid=(17,0,0) tid=(127,0,0)
GPGPU-Sim PTX: 900000 instructions simulated : ctaid=(6,0,0) tid=(31,0,0)
GPGPU-Sim uArch: cycles simulated: 4500  inst.: 892064 (ipc=198.2) sim_rate=44603 (inst/sec) elapsed = 0:0:00:20 / Fri May 15 12:01:09 2015
GPGPU-Sim PTX: 1000000 instructions simulated : ctaid=(1,0,0) tid=(31,0,0)
GPGPU-Sim PTX: 1100000 instructions simulated : ctaid=(44,0,0) tid=(31,0,0)
GPGPU-Sim uArch: cycles simulated: 5000  inst.: 1131168 (ipc=226.2) sim_rate=47132 (inst/sec) elapsed = 0:0:00:24 / Fri May 15 12:01:13 2015
GPGPU-Sim PTX: 1200000 instructions simulated : ctaid=(18,0,0) tid=(31,0,0)
GPGPU-Sim PTX: 1300000 instructions simulated : ctaid=(4,0,0) tid=(31,0,0)
GPGPU-Sim uArch: cycles simulated: 5500  inst.: 1328800 (ipc=241.6) sim_rate=49214 (inst/sec) elapsed = 0:0:00:27 / Fri May 15 12:01:16 2015
GPGPU-Sim PTX: 1400000 instructions simulated : ctaid=(2,0,0) tid=(127,0,0)
GPGPU-Sim PTX: 1500000 instructions simulated : ctaid=(9,0,0) tid=(31,0,0)
GPGPU-Sim uArch: cycles simulated: 6000  inst.: 1488768 (ipc=248.1) sim_rate=49625 (inst/sec) elapsed = 0:0:00:30 / Fri May 15 12:01:19 2015
GPGPU-Sim PTX: 1600000 instructions simulated : ctaid=(4,0,0) tid=(95,0,0)
GPGPU-Sim uArch: cycles simulated: 6500  inst.: 1629952 (ipc=250.8) sim_rate=50936 (inst/sec) elapsed = 0:0:00:32 / Fri May 15 12:01:21 2015
GPGPU-Sim PTX: 1700000 instructions simulated : ctaid=(44,0,0) tid=(63,0,0)
GPGPU-Sim uArch: cycles simulated: 7000  inst.: 1722304 (ipc=246.0) sim_rate=52191 (inst/sec) elapsed = 0:0:00:33 / Fri May 15 12:01:22 2015
GPGPU-Sim PTX: 1800000 instructions simulated : ctaid=(40,0,0) tid=(31,0,0)
GPGPU-Sim uArch: cycles simulated: 7500  inst.: 1832672 (ipc=244.4) sim_rate=52362 (inst/sec) elapsed = 0:0:00:35 / Fri May 15 12:01:24 2015
GPGPU-Sim PTX: 1900000 instructions simulated : ctaid=(33,0,0) tid=(95,0,0)
GPGPU-Sim uArch: cycles simulated: 8000  inst.: 1963744 (ipc=245.5) sim_rate=53074 (inst/sec) elapsed = 0:0:00:37 / Fri May 15 12:01:26 2015
GPGPU-Sim PTX: 2000000 instructions simulated : ctaid=(13,0,0) tid=(95,0,0)
GPGPU-Sim PTX: 2100000 instructions simulated : ctaid=(33,0,0) tid=(127,0,0)
GPGPU-Sim uArch: cycles simulated: 8500  inst.: 2081728 (ipc=244.9) sim_rate=53377 (inst/sec) elapsed = 0:0:00:39 / Fri May 15 12:01:28 2015
GPGPU-Sim PTX: 2200000 instructions simulated : ctaid=(33,0,0) tid=(127,0,0)
GPGPU-Sim uArch: cycles simulated: 9000  inst.: 2183040 (ipc=242.6) sim_rate=53244 (inst/sec) elapsed = 0:0:00:41 / Fri May 15 12:01:30 2015
GPGPU-Sim PTX: 2300000 instructions simulated : ctaid=(4,0,0) tid=(63,0,0)
GPGPU-Sim uArch: cycles simulated: 9500  inst.: 2276416 (ipc=239.6) sim_rate=54200 (inst/sec) elapsed = 0:0:00:42 / Fri May 15 12:01:31 2015
GPGPU-Sim PTX: 2400000 instructions simulated : ctaid=(25,0,0) tid=(95,0,0)
GPGPU-Sim uArch: cycles simulated: 10000  inst.: 2396320 (ipc=239.6) sim_rate=53251 (inst/sec) elapsed = 0:0:00:45 / Fri May 15 12:01:34 2015
GPGPU-Sim PTX: 2500000 instructions simulated : ctaid=(10,0,0) tid=(95,0,0)
GPGPU-Sim uArch: cycles simulated: 10500  inst.: 2532608 (ipc=241.2) sim_rate=53885 (inst/sec) elapsed = 0:0:00:47 / Fri May 15 12:01:36 2015
GPGPU-Sim PTX: 2600000 instructions simulated : ctaid=(8,0,0) tid=(31,0,0)
GPGPU-Sim uArch: cycles simulated: 11000  inst.: 2643552 (ipc=240.3) sim_rate=53950 (inst/sec) elapsed = 0:0:00:49 / Fri May 15 12:01:38 2015
GPGPU-Sim PTX: 2700000 instructions simulated : ctaid=(43,0,0) tid=(95,0,0)
GPGPU-Sim uArch: cycles simulated: 11500  inst.: 2736160 (ipc=237.9) sim_rate=53650 (inst/sec) elapsed = 0:0:00:51 / Fri May 15 12:01:40 2015
GPGPU-Sim PTX: 2800000 instructions simulated : ctaid=(3,0,0) tid=(31,0,0)
GPGPU-Sim uArch: cycles simulated: 12000  inst.: 2857440 (ipc=238.1) sim_rate=53913 (inst/sec) elapsed = 0:0:00:53 / Fri May 15 12:01:42 2015
GPGPU-Sim PTX: 2900000 instructions simulated : ctaid=(8,0,0) tid=(95,0,0)
GPGPU-Sim PTX: 3000000 instructions simulated : ctaid=(36,0,0) tid=(31,0,0)
GPGPU-Sim uArch: cycles simulated: 12500  inst.: 2992352 (ipc=239.4) sim_rate=54406 (inst/sec) elapsed = 0:0:00:55 / Fri May 15 12:01:44 2015
GPGPU-Sim PTX: 3100000 instructions simulated : ctaid=(43,0,0) tid=(63,0,0)
GPGPU-Sim uArch: cycles simulated: 13000  inst.: 3104288 (ipc=238.8) sim_rate=54461 (inst/sec) elapsed = 0:0:00:57 / Fri May 15 12:01:46 2015
GPGPU-Sim PTX: 3200000 instructions simulated : ctaid=(28,0,0) tid=(31,0,0)
GPGPU-Sim uArch: cycles simulated: 13500  inst.: 3196800 (ipc=236.8) sim_rate=54183 (inst/sec) elapsed = 0:0:00:59 / Fri May 15 12:01:48 2015
GPGPU-Sim PTX: 3300000 instructions simulated : ctaid=(27,0,0) tid=(127,0,0)
GPGPU-Sim uArch: cycles simulated: 14000  inst.: 3314880 (ipc=236.8) sim_rate=54342 (inst/sec) elapsed = 0:0:01:01 / Fri May 15 12:01:50 2015
GPGPU-Sim PTX: 3400000 instructions simulated : ctaid=(41,0,0) tid=(127,0,0)
GPGPU-Sim uArch: cycles simulated: 14500  inst.: 3450784 (ipc=238.0) sim_rate=53918 (inst/sec) elapsed = 0:0:01:04 / Fri May 15 12:01:53 2015
GPGPU-Sim PTX: 3500000 instructions simulated : ctaid=(29,0,0) tid=(127,0,0)
GPGPU-Sim uArch: cycles simulated: 15000  inst.: 3564640 (ipc=237.6) sim_rate=54009 (inst/sec) elapsed = 0:0:01:06 / Fri May 15 12:01:55 2015
GPGPU-Sim PTX: 3600000 instructions simulated : ctaid=(21,0,0) tid=(95,0,0)
GPGPU-Sim uArch: cycles simulated: 15500  inst.: 3657600 (ipc=236.0) sim_rate=54591 (inst/sec) elapsed = 0:0:01:07 / Fri May 15 12:01:56 2015
GPGPU-Sim PTX: 3700000 instructions simulated : ctaid=(16,0,0) tid=(95,0,0)
GPGPU-Sim uArch: cycles simulated: 16000  inst.: 3770816 (ipc=235.7) sim_rate=53868 (inst/sec) elapsed = 0:0:01:10 / Fri May 15 12:01:59 2015
GPGPU-Sim PTX: 3800000 instructions simulated : ctaid=(23,0,0) tid=(31,0,0)
GPGPU-Sim PTX: 3900000 instructions simulated : ctaid=(13,0,0) tid=(63,0,0)
GPGPU-Sim uArch: cycles simulated: 16500  inst.: 3908288 (ipc=236.9) sim_rate=54281 (inst/sec) elapsed = 0:0:01:12 / Fri May 15 12:02:01 2015
GPGPU-Sim PTX: 4000000 instructions simulated : ctaid=(18,0,0) tid=(63,0,0)
GPGPU-Sim uArch: cycles simulated: 17000  inst.: 4024128 (ipc=236.7) sim_rate=54380 (inst/sec) elapsed = 0:0:01:14 / Fri May 15 12:02:03 2015
GPGPU-Sim PTX: 4100000 instructions simulated : ctaid=(23,0,0) tid=(31,0,0)
GPGPU-Sim uArch: cycles simulated: 17500  inst.: 4118400 (ipc=235.3) sim_rate=54189 (inst/sec) elapsed = 0:0:01:16 / Fri May 15 12:02:05 2015
GPGPU-Sim PTX: 4200000 instructions simulated : ctaid=(12,0,0) tid=(63,0,0)
GPGPU-Sim uArch: cycles simulated: 18000  inst.: 4231680 (ipc=235.1) sim_rate=54252 (inst/sec) elapsed = 0:0:01:18 / Fri May 15 12:02:07 2015
GPGPU-Sim PTX: 4300000 instructions simulated : ctaid=(19,0,0) tid=(127,0,0)
GPGPU-Sim uArch: cycles simulated: 18500  inst.: 4371232 (ipc=236.3) sim_rate=53965 (inst/sec) elapsed = 0:0:01:21 / Fri May 15 12:02:10 2015
GPGPU-Sim PTX: 4400000 instructions simulated : ctaid=(28,0,0) tid=(95,0,0)
GPGPU-Sim PTX: 4500000 instructions simulated : ctaid=(31,0,0) tid=(127,0,0)
GPGPU-Sim uArch: cycles simulated: 19000  inst.: 4486144 (ipc=236.1) sim_rate=54049 (inst/sec) elapsed = 0:0:01:23 / Fri May 15 12:02:12 2015
GPGPU-Sim PTX: 4600000 instructions simulated : ctaid=(26,0,0) tid=(127,0,0)
GPGPU-Sim uArch: cycles simulated: 19500  inst.: 4579200 (ipc=234.8) sim_rate=53872 (inst/sec) elapsed = 0:0:01:25 / Fri May 15 12:02:14 2015
GPGPU-Sim PTX: 4700000 instructions simulated : ctaid=(5,0,0) tid=(31,0,0)
GPGPU-Sim uArch: cycles simulated: 20000  inst.: 4695744 (ipc=234.8) sim_rate=53360 (inst/sec) elapsed = 0:0:01:28 / Fri May 15 12:02:17 2015
GPGPU-Sim PTX: 4800000 instructions simulated : ctaid=(12,0,0) tid=(63,0,0)
GPGPU-Sim uArch: cycles simulated: 20500  inst.: 4833536 (ipc=235.8) sim_rate=53705 (inst/sec) elapsed = 0:0:01:30 / Fri May 15 12:02:19 2015
GPGPU-Sim PTX: 4900000 instructions simulated : ctaid=(3,0,0) tid=(31,0,0)
GPGPU-Sim uArch: cycles simulated: 21000  inst.: 4947392 (ipc=235.6) sim_rate=53197 (inst/sec) elapsed = 0:0:01:33 / Fri May 15 12:02:22 2015
GPGPU-Sim PTX: 5000000 instructions simulated : ctaid=(23,0,0) tid=(31,0,0)
GPGPU-Sim uArch: cycles simulated: 21500  inst.: 5040000 (ipc=234.4) sim_rate=53052 (inst/sec) elapsed = 0:0:01:35 / Fri May 15 12:02:24 2015
GPGPU-Sim PTX: 5100000 instructions simulated : ctaid=(43,0,0) tid=(63,0,0)
GPGPU-Sim uArch: cycles simulated: 22000  inst.: 5161504 (ipc=234.6) sim_rate=53211 (inst/sec) elapsed = 0:0:01:37 / Fri May 15 12:02:26 2015
GPGPU-Sim PTX: 5200000 instructions simulated : ctaid=(3,0,0) tid=(31,0,0)
GPGPU-Sim PTX: 5300000 instructions simulated : ctaid=(39,0,0) tid=(63,0,0)
GPGPU-Sim uArch: cycles simulated: 22500  inst.: 5298592 (ipc=235.5) sim_rate=52985 (inst/sec) elapsed = 0:0:01:40 / Fri May 15 12:02:29 2015
GPGPU-Sim PTX: 5400000 instructions simulated : ctaid=(25,0,0) tid=(127,0,0)
GPGPU-Sim uArch: cycles simulated: 23000  inst.: 5408256 (ipc=235.1) sim_rate=53022 (inst/sec) elapsed = 0:0:01:42 / Fri May 15 12:02:31 2015
GPGPU-Sim PTX: 5500000 instructions simulated : ctaid=(35,0,0) tid=(31,0,0)
GPGPU-Sim uArch: cycles simulated: 23500  inst.: 5501248 (ipc=234.1) sim_rate=52896 (inst/sec) elapsed = 0:0:01:44 / Fri May 15 12:02:33 2015
GPGPU-Sim PTX: 5600000 instructions simulated : ctaid=(10,0,0) tid=(127,0,0)
GPGPU-Sim uArch: cycles simulated: 24000  inst.: 5628000 (ipc=234.5) sim_rate=53094 (inst/sec) elapsed = 0:0:01:46 / Fri May 15 12:02:35 2015
GPGPU-Sim PTX: 5700000 instructions simulated : ctaid=(31,0,0) tid=(127,0,0)
GPGPU-Sim uArch: cycles simulated: 24500  inst.: 5762688 (ipc=235.2) sim_rate=52388 (inst/sec) elapsed = 0:0:01:50 / Fri May 15 12:02:39 2015
GPGPU-Sim PTX: 5800000 instructions simulated : ctaid=(28,0,0) tid=(127,0,0)
GPGPU-Sim uArch: cycles simulated: 25000  inst.: 5869344 (ipc=234.8) sim_rate=52404 (inst/sec) elapsed = 0:0:01:52 / Fri May 15 12:02:41 2015
GPGPU-Sim PTX: 5900000 instructions simulated : ctaid=(14,0,0) tid=(95,0,0)
GPGPU-Sim uArch: cycles simulated: 25500  inst.: 5963008 (ipc=233.8) sim_rate=52307 (inst/sec) elapsed = 0:0:01:54 / Fri May 15 12:02:43 2015
GPGPU-Sim PTX: 6000000 instructions simulated : ctaid=(40,0,0) tid=(63,0,0)
GPGPU-Sim PTX: 6100000 instructions simulated : ctaid=(33,0,0) tid=(31,0,0)
GPGPU-Sim uArch: cycles simulated: 26000  inst.: 6093632 (ipc=234.4) sim_rate=52082 (inst/sec) elapsed = 0:0:01:57 / Fri May 15 12:02:46 2015
GPGPU-Sim PTX: 6200000 instructions simulated : ctaid=(38,0,0) tid=(63,0,0)
GPGPU-Sim uArch: cycles simulated: 26500  inst.: 6226400 (ipc=235.0) sim_rate=52322 (inst/sec) elapsed = 0:0:01:59 / Fri May 15 12:02:48 2015
GPGPU-Sim PTX: 6300000 instructions simulated : ctaid=(13,0,0) tid=(95,0,0)
GPGPU-Sim uArch: cycles simulated: 27000  inst.: 6330240 (ipc=234.5) sim_rate=52316 (inst/sec) elapsed = 0:0:02:01 / Fri May 15 12:02:50 2015
GPGPU-Sim PTX: 6400000 instructions simulated : ctaid=(3,0,0) tid=(63,0,0)
GPGPU-Sim uArch: cycles simulated: 27500  inst.: 6426176 (ipc=233.7) sim_rate=52245 (inst/sec) elapsed = 0:0:02:03 / Fri May 15 12:02:52 2015
GPGPU-Sim PTX: 6500000 instructions simulated : ctaid=(11,0,0) tid=(63,0,0)
GPGPU-Sim uArch: cycles simulated: 28000  inst.: 6563008 (ipc=234.4) sim_rate=52087 (inst/sec) elapsed = 0:0:02:06 / Fri May 15 12:02:55 2015
GPGPU-Sim PTX: 6600000 instructions simulated : ctaid=(10,0,0) tid=(127,0,0)
GPGPU-Sim PTX: 6700000 instructions simulated : ctaid=(35,0,0) tid=(127,0,0)
GPGPU-Sim uArch: cycles simulated: 28500  inst.: 6690592 (ipc=234.8) sim_rate=52270 (inst/sec) elapsed = 0:0:02:08 / Fri May 15 12:02:57 2015
GPGPU-Sim PTX: 6800000 instructions simulated : ctaid=(18,0,0) tid=(127,0,0)
GPGPU-Sim uArch: cycles simulated: 29000  inst.: 6791040 (ipc=234.2) sim_rate=52238 (inst/sec) elapsed = 0:0:02:10 / Fri May 15 12:02:59 2015
GPGPU-Sim PTX: 6900000 instructions simulated : ctaid=(16,0,0) tid=(127,0,0)
GPGPU-Sim uArch: cycles simulated: 29500  inst.: 6890720 (ipc=233.6) sim_rate=52202 (inst/sec) elapsed = 0:0:02:12 / Fri May 15 12:03:01 2015
GPGPU-Sim PTX: 7000000 instructions simulated : ctaid=(17,0,0) tid=(31,0,0)
GPGPU-Sim uArch: cycles simulated: 30000  inst.: 7027072 (ipc=234.2) sim_rate=52052 (inst/sec) elapsed = 0:0:02:15 / Fri May 15 12:03:04 2015
GPGPU-Sim PTX: 7100000 instructions simulated : ctaid=(33,0,0) tid=(95,0,0)
GPGPU-Sim uArch: cycles simulated: 30500  inst.: 7151840 (ipc=234.5) sim_rate=52203 (inst/sec) elapsed = 0:0:02:17 / Fri May 15 12:03:06 2015
GPGPU-Sim PTX: 7200000 instructions simulated : ctaid=(35,0,0) tid=(95,0,0)
GPGPU-Sim uArch: cycles simulated: 31000  inst.: 7251840 (ipc=233.9) sim_rate=51798 (inst/sec) elapsed = 0:0:02:20 / Fri May 15 12:03:09 2015
GPGPU-Sim PTX: 7300000 instructions simulated : ctaid=(18,0,0) tid=(31,0,0)
GPGPU-Sim uArch: cycles simulated: 31500  inst.: 7354208 (ipc=233.5) sim_rate=51790 (inst/sec) elapsed = 0:0:02:22 / Fri May 15 12:03:11 2015
GPGPU-Sim PTX: 7400000 instructions simulated : ctaid=(8,0,0) tid=(95,0,0)
GPGPU-Sim PTX: 7500000 instructions simulated : ctaid=(28,0,0) tid=(63,0,0)
GPGPU-Sim uArch: cycles simulated: 32000  inst.: 7493440 (ipc=234.2) sim_rate=52037 (inst/sec) elapsed = 0:0:02:24 / Fri May 15 12:03:13 2015
GPGPU-Sim PTX: 7600000 instructions simulated : ctaid=(18,0,0) tid=(31,0,0)
GPGPU-Sim uArch: cycles simulated: 32500  inst.: 7616608 (ipc=234.4) sim_rate=51813 (inst/sec) elapsed = 0:0:02:27 / Fri May 15 12:03:16 2015
GPGPU-Sim PTX: 7700000 instructions simulated : ctaid=(21,0,0) tid=(63,0,0)
GPGPU-Sim uArch: cycles simulated: 33000  inst.: 7712640 (ipc=233.7) sim_rate=51762 (inst/sec) elapsed = 0:0:02:29 / Fri May 15 12:03:18 2015
GPGPU-Sim PTX: 7800000 instructions simulated : ctaid=(22,0,0) tid=(63,0,0)
GPGPU-Sim uArch: cycles simulated: 33500  inst.: 7818272 (ipc=233.4) sim_rate=51776 (inst/sec) elapsed = 0:0:02:31 / Fri May 15 12:03:20 2015
GPGPU-Sim PTX: 7900000 instructions simulated : ctaid=(43,0,0) tid=(31,0,0)
GPGPU-Sim uArch: cycles simulated: 34000  inst.: 7958528 (ipc=234.1) sim_rate=51678 (inst/sec) elapsed = 0:0:02:34 / Fri May 15 12:03:23 2015
GPGPU-Sim PTX: 8000000 instructions simulated : ctaid=(35,0,0) tid=(127,0,0)
GPGPU-Sim PTX: 8100000 instructions simulated : ctaid=(37,0,0) tid=(127,0,0)
GPGPU-Sim uArch: cycles simulated: 34500  inst.: 8078336 (ipc=234.2) sim_rate=51784 (inst/sec) elapsed = 0:0:02:36 / Fri May 15 12:03:25 2015
GPGPU-Sim uArch: cycles simulated: 35000  inst.: 8173440 (ipc=233.5) sim_rate=51730 (inst/sec) elapsed = 0:0:02:38 / Fri May 15 12:03:27 2015
GPGPU-Sim PTX: 8200000 instructions simulated : ctaid=(30,0,0) tid=(31,0,0)
GPGPU-Sim PTX: 8300000 instructions simulated : ctaid=(31,0,0) tid=(95,0,0)
GPGPU-Sim uArch: cycles simulated: 35500  inst.: 8285184 (ipc=233.4) sim_rate=51782 (inst/sec) elapsed = 0:0:02:40 / Fri May 15 12:03:29 2015
GPGPU-Sim PTX: 8400000 instructions simulated : ctaid=(25,0,0) tid=(31,0,0)
GPGPU-Sim uArch: cycles simulated: 36000  inst.: 8425568 (ipc=234.0) sim_rate=51690 (inst/sec) elapsed = 0:0:02:43 / Fri May 15 12:03:32 2015
GPGPU-Sim PTX: 8500000 instructions simulated : ctaid=(18,0,0) tid=(95,0,0)
GPGPU-Sim uArch: cycles simulated: 36500  inst.: 8540864 (ipc=234.0) sim_rate=51762 (inst/sec) elapsed = 0:0:02:45 / Fri May 15 12:03:34 2015
GPGPU-Sim PTX: 8600000 instructions simulated : ctaid=(38,0,0) tid=(31,0,0)
GPGPU-Sim uArch: cycles simulated: 37000  inst.: 8634240 (ipc=233.4) sim_rate=51702 (inst/sec) elapsed = 0:0:02:47 / Fri May 15 12:03:36 2015
GPGPU-Sim PTX: 8700000 instructions simulated : ctaid=(13,0,0) tid=(63,0,0)
GPGPU-Sim uArch: cycles simulated: 37500  inst.: 8751360 (ipc=233.4) sim_rate=51478 (inst/sec) elapsed = 0:0:02:50 / Fri May 15 12:03:39 2015
GPGPU-Sim PTX: 8800000 instructions simulated : ctaid=(18,0,0) tid=(31,0,0)
GPGPU-Sim PTX: 8900000 instructions simulated : ctaid=(16,0,0) tid=(31,0,0)
GPGPU-Sim uArch: cycles simulated: 38000  inst.: 8888480 (ipc=233.9) sim_rate=51378 (inst/sec) elapsed = 0:0:02:53 / Fri May 15 12:03:42 2015
GPGPU-Sim PTX: 9000000 instructions simulated : ctaid=(37,0,0) tid=(95,0,0)
GPGPU-Sim uArch: cycles simulated: 38500  inst.: 9002656 (ipc=233.8) sim_rate=51443 (inst/sec) elapsed = 0:0:02:55 / Fri May 15 12:03:44 2015
GPGPU-Sim PTX: 9100000 instructions simulated : ctaid=(11,0,0) tid=(127,0,0)
GPGPU-Sim uArch: cycles simulated: 39000  inst.: 9095040 (ipc=233.2) sim_rate=51384 (inst/sec) elapsed = 0:0:02:57 / Fri May 15 12:03:46 2015
GPGPU-Sim PTX: 9200000 instructions simulated : ctaid=(12,0,0) tid=(127,0,0)
GPGPU-Sim uArch: cycles simulated: 39500  inst.: 9212736 (ipc=233.2) sim_rate=51467 (inst/sec) elapsed = 0:0:02:59 / Fri May 15 12:03:48 2015
GPGPU-Sim PTX: 9300000 instructions simulated : ctaid=(43,0,0) tid=(127,0,0)
GPGPU-Sim uArch: cycles simulated: 40000  inst.: 9348896 (ipc=233.7) sim_rate=51367 (inst/sec) elapsed = 0:0:03:02 / Fri May 15 12:03:51 2015
GPGPU-Sim PTX: 9400000 instructions simulated : ctaid=(30,0,0) tid=(31,0,0)
GPGPU-Sim uArch: cycles simulated: 40500  inst.: 9461920 (ipc=233.6) sim_rate=51423 (inst/sec) elapsed = 0:0:03:04 / Fri May 15 12:03:53 2015
GPGPU-Sim PTX: 9500000 instructions simulated : ctaid=(35,0,0) tid=(63,0,0)
GPGPU-Sim uArch: cycles simulated: 41000  inst.: 9555840 (ipc=233.1) sim_rate=51375 (inst/sec) elapsed = 0:0:03:06 / Fri May 15 12:03:55 2015
GPGPU-Sim PTX: 9600000 instructions simulated : ctaid=(13,0,0) tid=(63,0,0)
GPGPU-Sim uArch: cycles simulated: 41500  inst.: 9667584 (ipc=233.0) sim_rate=51423 (inst/sec) elapsed = 0:0:03:08 / Fri May 15 12:03:57 2015
GPGPU-Sim PTX: 9700000 instructions simulated : ctaid=(3,0,0) tid=(31,0,0)
GPGPU-Sim PTX: 9800000 instructions simulated : ctaid=(8,0,0) tid=(63,0,0)
GPGPU-Sim uArch: cycles simulated: 42000  inst.: 9804192 (ipc=233.4) sim_rate=51601 (inst/sec) elapsed = 0:0:03:10 / Fri May 15 12:03:59 2015
GPGPU-Sim PTX: 9900000 instructions simulated : ctaid=(28,0,0) tid=(95,0,0)
GPGPU-Sim uArch: cycles simulated: 42500  inst.: 9921952 (ipc=233.5) sim_rate=51676 (inst/sec) elapsed = 0:0:03:12 / Fri May 15 12:04:01 2015
GPGPU-Sim PTX: 10000000 instructions simulated : ctaid=(33,0,0) tid=(63,0,0)
GPGPU-Sim uArch: cycles simulated: 43000  inst.: 10016640 (ipc=232.9) sim_rate=51899 (inst/sec) elapsed = 0:0:03:13 / Fri May 15 12:04:02 2015
GPGPU-Sim PTX: 10100000 instructions simulated : ctaid=(5,0,0) tid=(95,0,0)
GPGPU-Sim uArch: cycles simulated: 43500  inst.: 10122400 (ipc=232.7) sim_rate=51909 (inst/sec) elapsed = 0:0:03:15 / Fri May 15 12:04:04 2015
GPGPU-Sim PTX: 10200000 instructions simulated : ctaid=(42,0,0) tid=(63,0,0)
GPGPU-Sim uArch: cycles simulated: 44000  inst.: 10259968 (ipc=233.2) sim_rate=52346 (inst/sec) elapsed = 0:0:03:16 / Fri May 15 12:04:05 2015
GPGPU-Sim PTX: 10300000 instructions simulated : ctaid=(14,0,0) tid=(127,0,0)
GPGPU-Sim PTX: 10400000 instructions simulated : ctaid=(3,0,0) tid=(127,0,0)
GPGPU-Sim uArch: cycles simulated: 44500  inst.: 10379680 (ipc=233.3) sim_rate=52688 (inst/sec) elapsed = 0:0:03:17 / Fri May 15 12:04:06 2015
GPGPU-Sim PTX: 10500000 instructions simulated : ctaid=(13,0,0) tid=(127,0,0)
GPGPU-Sim uArch: cycles simulated: 45000  inst.: 10477440 (ipc=232.8) sim_rate=52650 (inst/sec) elapsed = 0:0:03:19 / Fri May 15 12:04:08 2015
GPGPU-Sim PTX: 10600000 instructions simulated : ctaid=(3,0,0) tid=(63,0,0)
GPGPU-Sim uArch: cycles simulated: 45500  inst.: 10578880 (ipc=232.5) sim_rate=52894 (inst/sec) elapsed = 0:0:03:20 / Fri May 15 12:04:09 2015
GPGPU-Sim PTX: 10700000 instructions simulated : ctaid=(5,0,0) tid=(63,0,0)
GPGPU-Sim uArch: cycles simulated: 46000  inst.: 10714368 (ipc=232.9) sim_rate=53305 (inst/sec) elapsed = 0:0:03:21 / Fri May 15 12:04:10 2015
GPGPU-Sim PTX: 10800000 instructions simulated : ctaid=(28,0,0) tid=(95,0,0)
GPGPU-Sim uArch: cycles simulated: 46500  inst.: 10840000 (ipc=233.1) sim_rate=53663 (inst/sec) elapsed = 0:0:03:22 / Fri May 15 12:04:11 2015
GPGPU-Sim PTX: 10900000 instructions simulated : ctaid=(3,0,0) tid=(31,0,0)
GPGPU-Sim uArch: cycles simulated: 47000  inst.: 10938240 (ipc=232.7) sim_rate=53618 (inst/sec) elapsed = 0:0:03:24 / Fri May 15 12:04:13 2015
GPGPU-Sim PTX: 11000000 instructions simulated : ctaid=(23,0,0) tid=(95,0,0)
GPGPU-Sim uArch: cycles simulated: 47500  inst.: 11036384 (ipc=232.3) sim_rate=53836 (inst/sec) elapsed = 0:0:03:25 / Fri May 15 12:04:14 2015
GPGPU-Sim PTX: 11100000 instructions simulated : ctaid=(13,0,0) tid=(31,0,0)
GPGPU-Sim PTX: 11200000 instructions simulated : ctaid=(21,0,0) tid=(63,0,0)
GPGPU-Sim uArch: cycles simulated: 48000  inst.: 11173376 (ipc=232.8) sim_rate=53977 (inst/sec) elapsed = 0:0:03:27 / Fri May 15 12:04:16 2015
GPGPU-Sim PTX: 11300000 instructions simulated : ctaid=(3,0,0) tid=(127,0,0)
GPGPU-Sim uArch: cycles simulated: 48500  inst.: 11298304 (ipc=233.0) sim_rate=54058 (inst/sec) elapsed = 0:0:03:29 / Fri May 15 12:04:18 2015
GPGPU-Sim PTX: 11400000 instructions simulated : ctaid=(35,0,0) tid=(127,0,0)
GPGPU-Sim uArch: cycles simulated: 49000  inst.: 11399040 (ipc=232.6) sim_rate=54281 (inst/sec) elapsed = 0:0:03:30 / Fri May 15 12:04:19 2015
GPGPU-Sim PTX: 11500000 instructions simulated : ctaid=(43,0,0) tid=(31,0,0)
GPGPU-Sim uArch: cycles simulated: 49500  inst.: 11497472 (ipc=232.3) sim_rate=54490 (inst/sec) elapsed = 0:0:03:31 / Fri May 15 12:04:20 2015
GPGPU-Sim PTX: 11600000 instructions simulated : ctaid=(5,0,0) tid=(127,0,0)
GPGPU-Sim uArch: cycles simulated: 50000  inst.: 11632928 (ipc=232.7) sim_rate=54614 (inst/sec) elapsed = 0:0:03:33 / Fri May 15 12:04:22 2015
GPGPU-Sim PTX: 11700000 instructions simulated : ctaid=(14,0,0) tid=(95,0,0)
GPGPU-Sim uArch: cycles simulated: 50500  inst.: 11759744 (ipc=232.9) sim_rate=54952 (inst/sec) elapsed = 0:0:03:34 / Fri May 15 12:04:23 2015
GPGPU-Sim PTX: 11800000 instructions simulated : ctaid=(10,0,0) tid=(63,0,0)
GPGPU-Sim uArch: cycles simulated: 51000  inst.: 11859840 (ipc=232.5) sim_rate=55162 (inst/sec) elapsed = 0:0:03:35 / Fri May 15 12:04:24 2015
GPGPU-Sim PTX: 11900000 instructions simulated : ctaid=(15,0,0) tid=(95,0,0)
GPGPU-Sim uArch: cycles simulated: 51500  inst.: 11961056 (ipc=232.3) sim_rate=55375 (inst/sec) elapsed = 0:0:03:36 / Fri May 15 12:04:25 2015
GPGPU-Sim PTX: 12000000 instructions simulated : ctaid=(13,0,0) tid=(31,0,0)
GPGPU-Sim PTX: 12100000 instructions simulated : ctaid=(33,0,0) tid=(95,0,0)
GPGPU-Sim uArch: cycles simulated: 52000  inst.: 12099104 (ipc=232.7) sim_rate=55500 (inst/sec) elapsed = 0:0:03:38 / Fri May 15 12:04:27 2015
GPGPU-Sim PTX: 12200000 instructions simulated : ctaid=(8,0,0) tid=(31,0,0)
GPGPU-Sim uArch: cycles simulated: 52500  inst.: 12224192 (ipc=232.8) sim_rate=55818 (inst/sec) elapsed = 0:0:03:39 / Fri May 15 12:04:28 2015
GPGPU-Sim PTX: 12300000 instructions simulated : ctaid=(28,0,0) tid=(63,0,0)
GPGPU-Sim uArch: cycles simulated: 53000  inst.: 12320640 (ipc=232.5) sim_rate=56002 (inst/sec) elapsed = 0:0:03:40 / Fri May 15 12:04:29 2015
GPGPU-Sim PTX: 12400000 instructions simulated : ctaid=(34,0,0) tid=(127,0,0)
GPGPU-Sim uArch: cycles simulated: 53500  inst.: 12425792 (ipc=232.3) sim_rate=55972 (inst/sec) elapsed = 0:0:03:42 / Fri May 15 12:04:31 2015
GPGPU-Sim PTX: 12500000 instructions simulated : ctaid=(12,0,0) tid=(31,0,0)
GPGPU-Sim uArch: cycles simulated: 54000  inst.: 12563808 (ipc=232.7) sim_rate=56339 (inst/sec) elapsed = 0:0:03:43 / Fri May 15 12:04:32 2015
GPGPU-Sim PTX: 12600000 instructions simulated : ctaid=(42,0,0) tid=(95,0,0)
GPGPU-Sim PTX: 12700000 instructions simulated : ctaid=(22,0,0) tid=(127,0,0)
GPGPU-Sim uArch: cycles simulated: 54500  inst.: 12685248 (ipc=232.8) sim_rate=56378 (inst/sec) elapsed = 0:0:03:45 / Fri May 15 12:04:34 2015
GPGPU-Sim PTX: 12800000 instructions simulated : ctaid=(13,0,0) tid=(127,0,0)
GPGPU-Sim uArch: cycles simulated: 55000  inst.: 12781440 (ipc=232.4) sim_rate=56555 (inst/sec) elapsed = 0:0:03:46 / Fri May 15 12:04:35 2015
GPGPU-Sim PTX: 12900000 instructions simulated : ctaid=(32,0,0) tid=(95,0,0)
GPGPU-Sim uArch: cycles simulated: 55500  inst.: 12889440 (ipc=232.2) sim_rate=56532 (inst/sec) elapsed = 0:0:03:48 / Fri May 15 12:04:37 2015
GPGPU-Sim PTX: 13000000 instructions simulated : ctaid=(7,0,0) tid=(63,0,0)
GPGPU-Sim uArch: cycles simulated: 56000  inst.: 13029920 (ipc=232.7) sim_rate=56651 (inst/sec) elapsed = 0:0:03:50 / Fri May 15 12:04:39 2015
GPGPU-Sim PTX: 13100000 instructions simulated : ctaid=(35,0,0) tid=(95,0,0)
GPGPU-Sim uArch: cycles simulated: 56500  inst.: 13147968 (ipc=232.7) sim_rate=56672 (inst/sec) elapsed = 0:0:03:52 / Fri May 15 12:04:41 2015
GPGPU-Sim PTX: 13200000 instructions simulated : ctaid=(13,0,0) tid=(95,0,0)
GPGPU-Sim uArch: cycles simulated: 57000  inst.: 13242240 (ipc=232.3) sim_rate=56833 (inst/sec) elapsed = 0:0:03:53 / Fri May 15 12:04:42 2015
GPGPU-Sim PTX: 13300000 instructions simulated : ctaid=(18,0,0) tid=(31,0,0)
GPGPU-Sim uArch: cycles simulated: 57500  inst.: 13358400 (ipc=232.3) sim_rate=56844 (inst/sec) elapsed = 0:0:03:55 / Fri May 15 12:04:44 2015
GPGPU-Sim PTX: 13400000 instructions simulated : ctaid=(23,0,0) tid=(63,0,0)
GPGPU-Sim PTX: 13500000 instructions simulated : ctaid=(43,0,0) tid=(31,0,0)
GPGPU-Sim uArch: cycles simulated: 58000  inst.: 13496992 (ipc=232.7) sim_rate=56949 (inst/sec) elapsed = 0:0:03:57 / Fri May 15 12:04:46 2015
GPGPU-Sim PTX: 13600000 instructions simulated : ctaid=(20,0,0) tid=(95,0,0)
GPGPU-Sim uArch: cycles simulated: 58500  inst.: 13610336 (ipc=232.7) sim_rate=57186 (inst/sec) elapsed = 0:0:03:58 / Fri May 15 12:04:47 2015
GPGPU-Sim PTX: 13700000 instructions simulated : ctaid=(35,0,0) tid=(95,0,0)
GPGPU-Sim uArch: cycles simulated: 59000  inst.: 13703104 (ipc=232.3) sim_rate=57096 (inst/sec) elapsed = 0:0:04:00 / Fri May 15 12:04:49 2015
GPGPU-Sim PTX: 13800000 instructions simulated : ctaid=(38,0,0) tid=(63,0,0)
GPGPU-Sim uArch: cycles simulated: 59500  inst.: 13824032 (ipc=232.3) sim_rate=57124 (inst/sec) elapsed = 0:0:04:02 / Fri May 15 12:04:51 2015
GPGPU-Sim PTX: 13900000 instructions simulated : ctaid=(18,0,0) tid=(127,0,0)
GPGPU-Sim uArch: cycles simulated: 60000  inst.: 13961216 (ipc=232.7) sim_rate=57453 (inst/sec) elapsed = 0:0:04:03 / Fri May 15 12:04:52 2015
GPGPU-Sim PTX: 14000000 instructions simulated : ctaid=(12,0,0) tid=(127,0,0)
GPGPU-Sim uArch: cycles simulated: 60500  inst.: 14071680 (ipc=232.6) sim_rate=57670 (inst/sec) elapsed = 0:0:04:04 / Fri May 15 12:04:53 2015
GPGPU-Sim PTX: 14100000 instructions simulated : ctaid=(32,0,0) tid=(127,0,0)
GPGPU-Sim uArch: cycles simulated: 61000  inst.: 14164448 (ipc=232.2) sim_rate=57579 (inst/sec) elapsed = 0:0:04:06 / Fri May 15 12:04:55 2015
GPGPU-Sim PTX: 14200000 instructions simulated : ctaid=(15,0,0) tid=(63,0,0)
GPGPU-Sim PTX: 14300000 instructions simulated : ctaid=(23,0,0) tid=(63,0,0)
GPGPU-Sim uArch: cycles simulated: 61500  inst.: 14289088 (ipc=232.3) sim_rate=57617 (inst/sec) elapsed = 0:0:04:08 / Fri May 15 12:04:57 2015
GPGPU-Sim PTX: 14400000 instructions simulated : ctaid=(43,0,0) tid=(95,0,0)
GPGPU-Sim uArch: cycles simulated: 62000  inst.: 14424192 (ipc=232.6) sim_rate=57696 (inst/sec) elapsed = 0:0:04:10 / Fri May 15 12:04:59 2015
GPGPU-Sim PTX: 14500000 instructions simulated : ctaid=(33,0,0) tid=(63,0,0)
GPGPU-Sim uArch: cycles simulated: 62500  inst.: 14532480 (ipc=232.5) sim_rate=57668 (inst/sec) elapsed = 0:0:04:12 / Fri May 15 12:05:01 2015
GPGPU-Sim PTX: 14600000 instructions simulated : ctaid=(8,0,0) tid=(31,0,0)
GPGPU-Sim uArch: cycles simulated: 63000  inst.: 14625504 (ipc=232.2) sim_rate=57580 (inst/sec) elapsed = 0:0:04:14 / Fri May 15 12:05:03 2015
GPGPU-Sim PTX: 14700000 instructions simulated : ctaid=(12,0,0) tid=(31,0,0)
GPGPU-Sim uArch: cycles simulated: 63500  inst.: 14712992 (ipc=231.7) sim_rate=57698 (inst/sec) elapsed = 0:0:04:15 / Fri May 15 12:05:04 2015
GPGPU-Sim uArch: cycles simulated: 64000  inst.: 14721024 (ipc=230.0) sim_rate=57280 (inst/sec) elapsed = 0:0:04:17 / Fri May 15 12:05:06 2015
GPGPU-Sim uArch: Shader 6 finished CTA #0 (64374,0), 2 CTAs running
GPGPU-Sim uArch: core:  6, cta: 0 initialized @(64375,0)
GPGPU-Sim uArch: Shader 6 finished CTA #1 (64392,0), 2 CTAs running
GPGPU-Sim uArch: core:  6, cta: 1 initialized @(64393,0)
GPGPU-Sim uArch: Shader 6 finished CTA #2 (64413,0), 2 CTAs running
GPGPU-Sim uArch: core:  6, cta: 2 initialized @(64414,0)
GPGPU-Sim uArch: Shader 4 finished CTA #0 (64487,0), 2 CTAs running
GPGPU-Sim uArch: core:  4, cta: 0 initialized @(64488,0)
GPGPU-Sim uArch: cycles simulated: 64500  inst.: 14732992 (ipc=228.4) sim_rate=56884 (inst/sec) elapsed = 0:0:04:19 / Fri May 15 12:05:08 2015
GPGPU-Sim uArch: Shader 4 finished CTA #1 (64529,0), 2 CTAs running
GPGPU-Sim uArch: core:  4, cta: 1 initialized @(64530,0)
GPGPU-Sim uArch: Shader 12 finished CTA #0 (64533,0), 2 CTAs running
GPGPU-Sim uArch: core: 12, cta: 0 initialized @(64534,0)
GPGPU-Sim uArch: Shader 12 finished CTA #1 (64545,0), 2 CTAs running
GPGPU-Sim uArch: core: 12, cta: 1 initialized @(64546,0)
GPGPU-Sim uArch: Shader 12 finished CTA #2 (64557,0), 2 CTAs running
GPGPU-Sim uArch: core: 12, cta: 2 initialized @(64558,0)
GPGPU-Sim uArch: Shader 4 finished CTA #2 (64559,0), 2 CTAs running
GPGPU-Sim uArch: core:  4, cta: 2 initialized @(64560,0)
GPGPU-Sim uArch: Shader 10 finished CTA #0 (64562,0), 2 CTAs running
GPGPU-Sim uArch: core: 10, cta: 0 initialized @(64563,0)
GPGPU-Sim uArch: Shader 1 finished CTA #0 (64568,0), 2 CTAs running
GPGPU-Sim uArch: core:  1, cta: 0 initialized @(64569,0)
GPGPU-Sim uArch: Shader 5 finished CTA #0 (64570,0), 2 CTAs running
GPGPU-Sim uArch: core:  5, cta: 0 initialized @(64571,0)
GPGPU-Sim uArch: Shader 11 finished CTA #0 (64579,0), 2 CTAs running
GPGPU-Sim uArch: core: 11, cta: 0 initialized @(64580,0)
GPGPU-Sim uArch: Shader 1 finished CTA #1 (64580,0), 2 CTAs running
GPGPU-Sim uArch: core:  1, cta: 1 initialized @(64581,0)
GPGPU-Sim uArch: Shader 5 finished CTA #1 (64585,0), 2 CTAs running
GPGPU-Sim uArch: core:  5, cta: 1 initialized @(64586,0)
GPGPU-Sim uArch: Shader 7 finished CTA #0 (64592,0), 2 CTAs running
GPGPU-Sim uArch: core:  7, cta: 0 initialized @(64593,0)
GPGPU-Sim uArch: Shader 11 finished CTA #1 (64594,0), 2 CTAs running
GPGPU-Sim uArch: core: 11, cta: 1 initialized @(64595,0)
GPGPU-Sim uArch: Shader 10 finished CTA #1 (64595,0), 2 CTAs running
GPGPU-Sim uArch: core: 10, cta: 1 initialized @(64596,0)
GPGPU-Sim uArch: Shader 5 finished CTA #2 (64600,0), 2 CTAs running
GPGPU-Sim uArch: core:  5, cta: 2 initialized @(64601,0)
GPGPU-Sim uArch: Shader 11 finished CTA #2 (64609,0), 2 CTAs running
GPGPU-Sim uArch: core: 11, cta: 2 initialized @(64610,0)
GPGPU-Sim uArch: Shader 1 finished CTA #2 (64613,0), 2 CTAs running
GPGPU-Sim uArch: Shader 7 finished CTA #1 (64613,0), 2 CTAs running
GPGPU-Sim uArch: core:  1, cta: 2 initialized @(64614,0)
GPGPU-Sim uArch: core:  7, cta: 1 initialized @(64614,0)
GPGPU-Sim uArch: Shader 10 finished CTA #2 (64616,0), 2 CTAs running
GPGPU-Sim uArch: core: 10, cta: 2 initialized @(64617,0)
GPGPU-Sim uArch: Shader 13 finished CTA #0 (64631,0), 2 CTAs running
GPGPU-Sim uArch: core: 13, cta: 0 initialized @(64632,0)
GPGPU-Sim uArch: Shader 7 finished CTA #2 (64634,0), 2 CTAs running
GPGPU-Sim uArch: core:  7, cta: 2 initialized @(64635,0)
GPGPU-Sim uArch: Shader 13 finished CTA #1 (64643,0), 2 CTAs running
GPGPU-Sim uArch: core: 13, cta: 1 initialized @(64644,0)
GPGPU-Sim uArch: Shader 13 finished CTA #2 (64655,0), 2 CTAs running
GPGPU-Sim uArch: core: 13, cta: 2 initialized @(64656,0)
GPGPU-Sim uArch: Shader 0 finished CTA #0 (64845,0), 2 CTAs running
GPGPU-Sim uArch: core:  0, cta: 0 initialized @(64846,0)
GPGPU-Sim uArch: Shader 3 finished CTA #0 (64848,0), 2 CTAs running
GPGPU-Sim uArch: core:  3, cta: 0 initialized @(64849,0)
GPGPU-Sim PTX: 14800000 instructions simulated : ctaid=(63,0,0) tid=(95,0,0)
GPGPU-Sim uArch: Shader 9 finished CTA #0 (64851,0), 2 CTAs running
GPGPU-Sim uArch: core:  9, cta: 0 initialized @(64852,0)
GPGPU-Sim uArch: Shader 14 finished CTA #0 (64861,0), 2 CTAs running
GPGPU-Sim uArch: core: 14, cta: 0 initialized @(64862,0)
GPGPU-Sim uArch: Shader 2 finished CTA #0 (64863,0), 2 CTAs running
GPGPU-Sim uArch: core:  2, cta: 0 initialized @(64864,0)
GPGPU-Sim uArch: Shader 8 finished CTA #0 (64868,0), 2 CTAs running
GPGPU-Sim uArch: core:  8, cta: 0 initialized @(64869,0)
GPGPU-Sim uArch: Shader 0 finished CTA #1 (64875,0), 2 CTAs running
GPGPU-Sim uArch: core:  0, cta: 1 initialized @(64876,0)
GPGPU-Sim uArch: Shader 3 finished CTA #1 (64878,0), 2 CTAs running
GPGPU-Sim uArch: core:  3, cta: 1 initialized @(64879,0)
GPGPU-Sim uArch: Shader 9 finished CTA #1 (64881,0), 2 CTAs running
GPGPU-Sim uArch: core:  9, cta: 1 initialized @(64882,0)
GPGPU-Sim uArch: Shader 14 finished CTA #1 (64886,0), 2 CTAs running
GPGPU-Sim uArch: core: 14, cta: 1 initialized @(64887,0)
GPGPU-Sim uArch: Shader 2 finished CTA #1 (64889,0), 2 CTAs running
GPGPU-Sim uArch: core:  2, cta: 1 initialized @(64890,0)
GPGPU-Sim uArch: Shader 8 finished CTA #1 (64895,0), 2 CTAs running
GPGPU-Sim uArch: core:  8, cta: 1 initialized @(64896,0)
GPGPU-Sim uArch: Shader 0 finished CTA #2 (64905,0), 2 CTAs running
GPGPU-Sim uArch: core:  0, cta: 2 initialized @(64906,0)
GPGPU-Sim uArch: Shader 3 finished CTA #2 (64908,0), 2 CTAs running
GPGPU-Sim uArch: core:  3, cta: 2 initialized @(64909,0)
GPGPU-Sim uArch: Shader 9 finished CTA #2 (64911,0), 2 CTAs running
GPGPU-Sim uArch: core:  9, cta: 2 initialized @(64912,0)
GPGPU-Sim uArch: Shader 14 finished CTA #2 (64915,0), 2 CTAs running
GPGPU-Sim uArch: core: 14, cta: 2 initialized @(64916,0)
GPGPU-Sim uArch: Shader 2 finished CTA #2 (64918,0), 2 CTAs running
GPGPU-Sim uArch: core:  2, cta: 2 initialized @(64919,0)
GPGPU-Sim uArch: Shader 8 finished CTA #2 (64924,0), 2 CTAs running
GPGPU-Sim uArch: core:  8, cta: 2 initialized @(64925,0)
GPGPU-Sim uArch: cycles simulated: 65000  inst.: 14794112 (ipc=227.6) sim_rate=56038 (inst/sec) elapsed = 0:0:04:24 / Fri May 15 12:05:13 2015
GPGPU-Sim PTX: 14900000 instructions simulated : ctaid=(53,0,0) tid=(63,0,0)
GPGPU-Sim uArch: cycles simulated: 65500  inst.: 14955328 (ipc=228.3) sim_rate=56012 (inst/sec) elapsed = 0:0:04:27 / Fri May 15 12:05:16 2015
GPGPU-Sim PTX: 15000000 instructions simulated : ctaid=(62,0,0) tid=(31,0,0)
GPGPU-Sim PTX: 15100000 instructions simulated : ctaid=(73,0,0) tid=(31,0,0)
GPGPU-Sim uArch: cycles simulated: 66000  inst.: 15126336 (ipc=229.2) sim_rate=56231 (inst/sec) elapsed = 0:0:04:29 / Fri May 15 12:05:18 2015
GPGPU-Sim PTX: 15200000 instructions simulated : ctaid=(71,0,0) tid=(31,0,0)
GPGPU-Sim uArch: cycles simulated: 66500  inst.: 15240768 (ipc=229.2) sim_rate=56447 (inst/sec) elapsed = 0:0:04:30 / Fri May 15 12:05:19 2015
GPGPU-Sim PTX: 15300000 instructions simulated : ctaid=(60,0,0) tid=(95,0,0)
GPGPU-Sim PTX: 15400000 instructions simulated : ctaid=(63,0,0) tid=(31,0,0)
GPGPU-Sim uArch: cycles simulated: 67000  inst.: 15368224 (ipc=229.4) sim_rate=56500 (inst/sec) elapsed = 0:0:04:32 / Fri May 15 12:05:21 2015
GPGPU-Sim PTX: 15500000 instructions simulated : ctaid=(82,0,0) tid=(95,0,0)
GPGPU-Sim PTX: 15600000 instructions simulated : ctaid=(60,0,0) tid=(63,0,0)
GPGPU-Sim uArch: cycles simulated: 67500  inst.: 15581888 (ipc=230.8) sim_rate=56661 (inst/sec) elapsed = 0:0:04:35 / Fri May 15 12:05:24 2015
GPGPU-Sim PTX: 15700000 instructions simulated : ctaid=(65,0,0) tid=(31,0,0)
GPGPU-Sim PTX: 15800000 instructions simulated : ctaid=(74,0,0) tid=(63,0,0)
GPGPU-Sim uArch: cycles simulated: 68000  inst.: 15814688 (ipc=232.6) sim_rate=56887 (inst/sec) elapsed = 0:0:04:38 / Fri May 15 12:05:27 2015
GPGPU-Sim PTX: 15900000 instructions simulated : ctaid=(83,0,0) tid=(95,0,0)
GPGPU-Sim PTX: 16000000 instructions simulated : ctaid=(62,0,0) tid=(31,0,0)
GPGPU-Sim uArch: cycles simulated: 68500  inst.: 16028288 (ipc=234.0) sim_rate=57040 (inst/sec) elapsed = 0:0:04:41 / Fri May 15 12:05:30 2015
GPGPU-Sim PTX: 16100000 instructions simulated : ctaid=(47,0,0) tid=(63,0,0)
GPGPU-Sim PTX: 16200000 instructions simulated : ctaid=(67,0,0) tid=(63,0,0)
GPGPU-Sim uArch: cycles simulated: 69000  inst.: 16244800 (ipc=235.4) sim_rate=57402 (inst/sec) elapsed = 0:0:04:43 / Fri May 15 12:05:32 2015
GPGPU-Sim PTX: 16300000 instructions simulated : ctaid=(64,0,0) tid=(31,0,0)
GPGPU-Sim PTX: 16400000 instructions simulated : ctaid=(78,0,0) tid=(127,0,0)
GPGPU-Sim PTX: 16500000 instructions simulated : ctaid=(50,0,0) tid=(127,0,0)
GPGPU-Sim uArch: cycles simulated: 69500  inst.: 16451712 (ipc=236.7) sim_rate=57523 (inst/sec) elapsed = 0:0:04:46 / Fri May 15 12:05:35 2015
GPGPU-Sim PTX: 16600000 instructions simulated : ctaid=(48,0,0) tid=(63,0,0)
GPGPU-Sim PTX: 16700000 instructions simulated : ctaid=(49,0,0) tid=(63,0,0)
GPGPU-Sim uArch: cycles simulated: 70000  inst.: 16662784 (ipc=238.0) sim_rate=57656 (inst/sec) elapsed = 0:0:04:49 / Fri May 15 12:05:38 2015
GPGPU-Sim PTX: 16800000 instructions simulated : ctaid=(71,0,0) tid=(95,0,0)
GPGPU-Sim PTX: 16900000 instructions simulated : ctaid=(68,0,0) tid=(95,0,0)
GPGPU-Sim uArch: cycles simulated: 70500  inst.: 16875072 (ipc=239.4) sim_rate=57989 (inst/sec) elapsed = 0:0:04:51 / Fri May 15 12:05:40 2015
GPGPU-Sim PTX: 17000000 instructions simulated : ctaid=(83,0,0) tid=(63,0,0)
GPGPU-Sim PTX: 17100000 instructions simulated : ctaid=(52,0,0) tid=(127,0,0)
GPGPU-Sim uArch: cycles simulated: 71000  inst.: 17074624 (ipc=240.5) sim_rate=58076 (inst/sec) elapsed = 0:0:04:54 / Fri May 15 12:05:43 2015
GPGPU-Sim PTX: 17200000 instructions simulated : ctaid=(58,0,0) tid=(95,0,0)
GPGPU-Sim PTX: 17300000 instructions simulated : ctaid=(69,0,0) tid=(127,0,0)
GPGPU-Sim uArch: cycles simulated: 71500  inst.: 17269536 (ipc=241.5) sim_rate=58146 (inst/sec) elapsed = 0:0:04:57 / Fri May 15 12:05:46 2015
GPGPU-Sim PTX: 17400000 instructions simulated : ctaid=(65,0,0) tid=(31,0,0)
GPGPU-Sim PTX: 17500000 instructions simulated : ctaid=(55,0,0) tid=(63,0,0)
GPGPU-Sim uArch: cycles simulated: 72000  inst.: 17464384 (ipc=242.6) sim_rate=58214 (inst/sec) elapsed = 0:0:05:00 / Fri May 15 12:05:49 2015
GPGPU-Sim PTX: 17600000 instructions simulated : ctaid=(77,0,0) tid=(63,0,0)
GPGPU-Sim PTX: 17700000 instructions simulated : ctaid=(47,0,0) tid=(127,0,0)
GPGPU-Sim uArch: cycles simulated: 72500  inst.: 17654752 (ipc=243.5) sim_rate=58459 (inst/sec) elapsed = 0:0:05:02 / Fri May 15 12:05:51 2015
GPGPU-Sim PTX: 17800000 instructions simulated : ctaid=(73,0,0) tid=(31,0,0)
GPGPU-Sim uArch: cycles simulated: 73000  inst.: 17840896 (ipc=244.4) sim_rate=58494 (inst/sec) elapsed = 0:0:05:05 / Fri May 15 12:05:54 2015
GPGPU-Sim PTX: 17900000 instructions simulated : ctaid=(58,0,0) tid=(95,0,0)
GPGPU-Sim PTX: 18000000 instructions simulated : ctaid=(47,0,0) tid=(31,0,0)
GPGPU-Sim uArch: cycles simulated: 73500  inst.: 18020256 (ipc=245.2) sim_rate=58507 (inst/sec) elapsed = 0:0:05:08 / Fri May 15 12:05:57 2015
GPGPU-Sim PTX: 18100000 instructions simulated : ctaid=(69,0,0) tid=(63,0,0)
GPGPU-Sim PTX: 18200000 instructions simulated : ctaid=(51,0,0) tid=(31,0,0)
GPGPU-Sim uArch: cycles simulated: 74000  inst.: 18199008 (ipc=245.9) sim_rate=58706 (inst/sec) elapsed = 0:0:05:10 / Fri May 15 12:05:59 2015
GPGPU-Sim PTX: 18300000 instructions simulated : ctaid=(56,0,0) tid=(63,0,0)
GPGPU-Sim PTX: 18400000 instructions simulated : ctaid=(56,0,0) tid=(31,0,0)
GPGPU-Sim uArch: cycles simulated: 74500  inst.: 18377696 (ipc=246.7) sim_rate=58902 (inst/sec) elapsed = 0:0:05:12 / Fri May 15 12:06:01 2015
GPGPU-Sim PTX: 18500000 instructions simulated : ctaid=(51,0,0) tid=(63,0,0)
GPGPU-Sim PTX: 18600000 instructions simulated : ctaid=(45,0,0) tid=(95,0,0)
GPGPU-Sim uArch: cycles simulated: 75000  inst.: 18556576 (ipc=247.4) sim_rate=59097 (inst/sec) elapsed = 0:0:05:14 / Fri May 15 12:06:03 2015
GPGPU-Sim PTX: 18700000 instructions simulated : ctaid=(57,0,0) tid=(31,0,0)
GPGPU-Sim uArch: cycles simulated: 75500  inst.: 18736416 (ipc=248.2) sim_rate=59480 (inst/sec) elapsed = 0:0:05:15 / Fri May 15 12:06:04 2015
GPGPU-Sim PTX: 18800000 instructions simulated : ctaid=(87,0,0) tid=(31,0,0)
GPGPU-Sim PTX: 18900000 instructions simulated : ctaid=(53,0,0) tid=(127,0,0)
GPGPU-Sim uArch: cycles simulated: 76000  inst.: 18919648 (ipc=248.9) sim_rate=59683 (inst/sec) elapsed = 0:0:05:17 / Fri May 15 12:06:06 2015
GPGPU-Sim PTX: 19000000 instructions simulated : ctaid=(74,0,0) tid=(63,0,0)
GPGPU-Sim PTX: 19100000 instructions simulated : ctaid=(80,0,0) tid=(31,0,0)
GPGPU-Sim uArch: cycles simulated: 76500  inst.: 19102368 (ipc=249.7) sim_rate=59882 (inst/sec) elapsed = 0:0:05:19 / Fri May 15 12:06:08 2015
GPGPU-Sim PTX: 19200000 instructions simulated : ctaid=(47,0,0) tid=(31,0,0)
GPGPU-Sim PTX: 19300000 instructions simulated : ctaid=(52,0,0) tid=(95,0,0)
GPGPU-Sim uArch: cycles simulated: 77000  inst.: 19284320 (ipc=250.4) sim_rate=60075 (inst/sec) elapsed = 0:0:05:21 / Fri May 15 12:06:10 2015
GPGPU-Sim PTX: 19400000 instructions simulated : ctaid=(54,0,0) tid=(95,0,0)
GPGPU-Sim PTX: 19500000 instructions simulated : ctaid=(69,0,0) tid=(63,0,0)
[...]
traffic_breakdown_memtocore[INST_ACC_R] = 4008192 {136:29472,}
maxmrqlatency = 153 
maxdqlatency = 0 
maxmflatency = 782 
averagemflatency = 240 
max_icnt2mem_latency = 425 
max_icnt2sh_latency = 386332 
mrq_lat_table:3087 	277 	185 	2675 	1599 	891 	630 	30 	0 	0 	0 	0 	0 	0 	0 	0 	0 	0 	0 	0 	0 	0 	0 	0 	0 	0 	0 	0 	0 	0 	0 	0 	
dq_lat_table:0 	0 	0 	0 	0 	0 	0 	0 	0 	0 	0 	0 	0 	0 	0 	0 	0 	0 	0 	0 	0 	0 	0 	0 	0 	0 	0 	0 	0 	0 	0 	0 	
mf_lat_table:0 	0 	0 	0 	0 	0 	0 	16503 	9536 	363 	0 	0 	0 	0 	0 	0 	0 	0 	0 	0 	0 	0 	0 	0 	0 	0 	0 	0 	0 	0 	0 	0 	
icnt2mem_lat_table:0 	0 	0 	32419 	3517 	14565 	4014 	1073 	286 	0 	0 	0 	0 	0 	0 	0 	0 	0 	0 	0 	0 	0 	0 	0 	
icnt2sh_lat_table:0 	0 	0 	991 	668 	165 	2 	0 	0 	0 	0 	0 	0 	0 	0 	2880 	2880 	8950 	9866 	0 	0 	0 	0 	0 	
mf_lat_pw_table:0 	0 	0 	0 	0 	0 	0 	156 	45 	0 	0 	0 	0 	0 	0 	0 	0 	0 	0 	0 	0 	0 	0 	0 	0 	0 	0 	0 	0 	0 	0 	0 	
maximum concurrent accesses to same row:
dram[0]:         7         8         6         5        10        10         0         0         0         0         0         0         0         0         0         0 
dram[1]:         8         8         6         4        10        10         0         0         0         0         0         0         0         0         0         0 
dram[2]:         8         8         6         4        10        12         0         0         0         0         0         0         0         0         0         0 
dram[3]:         8         8         6         4        10        12         0         0         0         0         0         0         0         0         0         0 
dram[4]:         8         8         6         4        10        12         0         0         0         0         0         0         0         0         0         0 
dram[5]:         7         8         6         4        10        12         0         0         0         0         0         0         0         0         0         0 
maximum service time to same row:
dram[0]:    143185    138409    189874    213439    335397    335566      3704      3728    108163    108168    191849    224307     63385     63438     63522     63623 
dram[1]:    142443    137191    189032    217361    335353    335899      3707      3732    108244    108247    191853    224407     63331     63363     63627     63582 
dram[2]:    141647    136479    188288    216580    335432    335992      3710      3734    108303    108746    193144    224363     63372     63387     63499     63511 
dram[3]:    140969    136994    215786    215189    335519    335925      3713      3738    108372    108816    222663    224374     63349     63319     63702     63666 
dram[4]:    140319    136234    215006    214487    335562    335966      3691      3746    108307    108750    222978    224340     63391     63343     63518     63627 
dram[5]:    138603    135363    214164    213696    335505    335344      3696      3750    108374    108818    223682    224415     63326     63355     63626     63704 
average row accesses per activate:
dram[0]: 42.250000 84.000000 83.000000 82.500000 60.000000 60.000000 32.000000 32.000000 32.000000 32.000000 32.000000 32.000000 72.000000 72.000000 160.000000 160.000000 
dram[1]: 84.000000 84.000000 83.000000 82.000000 60.000000 60.000000 32.000000 32.000000 32.000000 32.000000 32.000000 32.000000 72.000000 72.000000 160.000000 160.000000 
dram[2]: 84.000000 84.000000 83.000000 82.000000 60.000000 61.000000 32.000000 32.000000 32.000000 32.000000 32.000000 32.000000 72.000000 71.000000 160.000000 160.000000 
dram[3]: 84.000000 84.000000 83.000000 82.000000 60.000000 56.000000 32.000000 32.000000 32.000000 32.000000 32.000000 32.000000 72.000000 80.000000 160.000000 160.000000 
dram[4]: 84.000000 84.000000 83.000000 82.000000 60.000000 56.000000 32.000000 32.000000 32.000000 32.000000 32.000000 32.000000 72.000000 80.000000 160.000000 160.000000 
dram[5]: 83.500000 84.000000 83.000000 82.000000 60.000000 56.000000 32.000000 32.000000 32.000000 32.000000 32.000000 32.000000 72.000000 80.000000 160.000000 160.000000 
average row locality = 9374/134 = 69.955223
number of total memory accesses made:
dram[0]:         0         0         0         0         0         0         0         0         0         0         0         0         0         0         0         0 
dram[1]:         0         0         0         0         0         0         0         0         0         0         0         0         0         0         0         0 
dram[2]:         0         0         0         0         0         0         0         0         0         0         0         0         0         0         0         0 
dram[3]:         0         0         0         0         0         0         0         0         0         0         0         0         0         0         0         0 
dram[4]:         0         0         0         0         0         0         0         0         0         0         0         0         0         0         0         0 
dram[5]:         0         0         0         0         0         0         0         0         0         0         0         0         0         0         0         0 
total accesses: 0
min_bank_accesses = 0!
min_chip_accesses = 0!
number of total read accesses:
dram[0]:        41        40        38        37        32        32        32        32        32        32        32        32        32        32        32        32 
dram[1]:        40        40        38        36        32        32        32        32        32        32        32        32        32        32        32        32 
dram[2]:        40        40        38        36        32        34        32        32        32        32        32        32        32        31        32        32 
dram[3]:        40        40        38        36        32        32        32        32        32        32        32        32        32        32        32        32 
dram[4]:        40        40        38        36        32        32        32        32        32        32        32        32        32        32        32        32 
dram[5]:        39        40        38        36        32        32        32        32        32        32        32        32        32        32        32        32 
total reads: 3230
bank skew: 41/31 = 1.32
chip skew: 540/537 = 1.01
number of total write accesses:
dram[0]:       128       128       128       128        88        88         0         0         0         0         0         0        40        40       128       128 
dram[1]:       128       128       128       128        88        88         0         0         0         0         0         0        40        40       128       128 
dram[2]:       128       128       128       128        88        88         0         0         0         0         0         0        40        40       128       128 
dram[3]:       128       128       128       128        88        80         0         0         0         0         0         0        40        48       128       128 
dram[4]:       128       128       128       128        88        80         0         0         0         0         0         0        40        48       128       128 
dram[5]:       128       128       128       128        88        80         0         0         0         0         0         0        40        48       128       128 
total reads: 6144
min_bank_accesses = 0!
chip skew: 1024/1024 = 1.00
average mf latency per bank:
dram[0]:        715       686       662       665       652       633       349       340       322       325       318       321       758       843       803       820
dram[1]:        716       686       656       668       614       657       285       280       270       268       265       267       864       849       934       938
dram[2]:        692       674       649       677       645       632       349       352       311       311       324       321       774       773       889       817
dram[3]:        699       702       659       673       651       632       276       276       269       266       265       265       807       901       876       819
dram[4]:        664       659       656       731       670       659       328       336       313       324       308       320       751       807       784       801
dram[5]:        705       699       653       656       623       648       275       278       266       263       263       264       921       837       877       861
maximum mf latency per bank:
dram[0]:        376       506       343       359       352       341       372       372       289       300       326       283       572       672       530       624
dram[1]:        418       394       415       356       328       387       376       376       313       320       285       297       701       711       770       661
dram[2]:        496       407       348       354       361       361       365       373       291       297       283       367       586       647       613       574
dram[3]:        434       451       404       407       365       348       369       377       305       285       288       286       607       647       700       732
dram[4]:        395       391       339       419       419       406       421       367       297       304       360       292       631       662       612       679
dram[5]:        402       420       380       404       322       355       377       377       293       283       294       282       782       659       744       646

Number of Memory Banks Accessed per Memory Operation per Warp (from 0):
0	0	0	0	0	0	0	0	0	0	0	0	0	0	0	0	0	0	0	0	0	0	0	0	0	0	0	0	0	0	0	0	0	0	0	0	0	0	0	0	0	0	0	0	0	0	0	0	0	0	0	0	0	0	0	0	0	0	0	0	0	0	0	0	0	0	0	0	0	0	0	0	0	0	0	0	0	0	0	0	0	0	0	0	0	0	0	0	0	0	0	0	0	0	0	0	
Average # of Memory Banks Accessed per Memory Operation per Warp=-nan

position of mrq chosen
0	0	0	0	0	0	0	0	0	0	0	0	0	0	0	0	

average position of mrq chosen = -nan
Memory Partition 0: 
Cache L2_bank_000:
MSHR contents

Cache L2_bank_001:
MSHR contents

In Dram Latency Queue (total = 0): 
DRAM[0]: 16 bks, busW=4 BL=8 CL=12, tRRD=2 tCCD=6, tRCD=12 tRAS=28 tRP=12 tRC=40
n_cmd=509959 n_nop=507823 n_act=24 n_pre=8 n_req=1564 n_rd=1080 n_write=1024 bw_util=0.008252
n_activity=13051 dram_eff=0.3224
bk0: 82a 508722i bk1: 80a 508751i bk2: 76a 508764i bk3: 74a 508767i bk4: 64a 509128i bk5: 64a 509072i bk6: 64a 509663i bk7: 64a 509652i bk8: 64a 509793i bk9: 64a 509778i bk10: 64a 509800i bk11: 64a 509802i bk12: 64a 509205i bk13: 64a 509188i bk14: 64a 508365i bk15: 64a 508414i 
dram_util_bins: 0 0 0 0 0 0 0 0 0 0
dram_eff_bins: 0 0 0 0 0 0 0 0 0 0
mrqq: max=16 avg=0.0647581
Memory Partition 1: 
Cache L2_bank_002:
MSHR contents

Cache L2_bank_003:
MSHR contents

In Dram Latency Queue (total = 0): 
DRAM[1]: 16 bks, busW=4 BL=8 CL=12, tRRD=2 tCCD=6, tRCD=12 tRAS=28 tRP=12 tRC=40
n_cmd=509959 n_nop=507831 n_act=22 n_pre=6 n_req=1562 n_rd=1076 n_write=1024 bw_util=0.008236
n_activity=12960 dram_eff=0.3241
bk0: 80a 508700i bk1: 80a 508693i bk2: 76a 508827i bk3: 72a 508807i bk4: 64a 509132i bk5: 64a 509067i bk6: 64a 509683i bk7: 64a 509687i bk8: 64a 509813i bk9: 64a 509767i bk10: 64a 509799i bk11: 64a 509795i bk12: 64a 509316i bk13: 64a 509247i bk14: 64a 508446i bk15: 64a 508300i 
dram_util_bins: 0 0 0 0 0 0 0 0 0 0
dram_eff_bins: 0 0 0 0 0 0 0 0 0 0
mrqq: max=16 avg=0.079577
Memory Partition 2: 
Cache L2_bank_004:
MSHR contents

Cache L2_bank_005:
MSHR contents

In Dram Latency Queue (total = 0): 
DRAM[2]: 16 bks, busW=4 BL=8 CL=12, tRRD=2 tCCD=6, tRCD=12 tRAS=28 tRP=12 tRC=40
n_cmd=509959 n_nop=507829 n_act=22 n_pre=6 n_req=1563 n_rd=1078 n_write=1024 bw_util=0.008244
n_activity=12964 dram_eff=0.3243
bk0: 80a 508756i bk1: 80a 508741i bk2: 76a 508777i bk3: 72a 508779i bk4: 64a 509131i bk5: 68a 509056i bk6: 64a 509682i bk7: 64a 509671i bk8: 64a 509779i bk9: 64a 509776i bk10: 64a 509782i bk11: 64a 509806i bk12: 64a 509315i bk13: 62a 509151i bk14: 64a 508367i bk15: 64a 508357i 
dram_util_bins: 0 0 0 0 0 0 0 0 0 0
dram_eff_bins: 0 0 0 0 0 0 0 0 0 0
mrqq: max=16 avg=0.0683428
Memory Partition 3: 
Cache L2_bank_006:
MSHR contents

Cache L2_bank_007:
MSHR contents

In Dram Latency Queue (total = 0): 
DRAM[3]: 16 bks, busW=4 BL=8 CL=12, tRRD=2 tCCD=6, tRCD=12 tRAS=28 tRP=12 tRC=40
n_cmd=509959 n_nop=507831 n_act=22 n_pre=6 n_req=1562 n_rd=1076 n_write=1024 bw_util=0.008236
n_activity=12941 dram_eff=0.3245
bk0: 80a 508696i bk1: 80a 508675i bk2: 76a 508778i bk3: 72a 508809i bk4: 64a 509094i bk5: 64a 509081i bk6: 64a 509701i bk7: 64a 509696i bk8: 64a 509800i bk9: 64a 509804i bk10: 64a 509790i bk11: 64a 509796i bk12: 64a 509313i bk13: 64a 509207i bk14: 64a 508490i bk15: 64a 508407i 
dram_util_bins: 0 0 0 0 0 0 0 0 0 0
dram_eff_bins: 0 0 0 0 0 0 0 0 0 0
mrqq: max=16 avg=0.0814556
Memory Partition 4: 
Cache L2_bank_008:
MSHR contents

Cache L2_bank_009:
MSHR contents

In Dram Latency Queue (total = 0): 
DRAM[4]: 16 bks, busW=4 BL=8 CL=12, tRRD=2 tCCD=6, tRCD=12 tRAS=28 tRP=12 tRC=40
n_cmd=509959 n_nop=507831 n_act=22 n_pre=6 n_req=1562 n_rd=1076 n_write=1024 bw_util=0.008236
n_activity=12834 dram_eff=0.3273
bk0: 80a 508717i bk1: 80a 508705i bk2: 76a 508794i bk3: 72a 508836i bk4: 64a 509105i bk5: 64a 509098i bk6: 64a 509730i bk7: 64a 509682i bk8: 64a 509791i bk9: 64a 509736i bk10: 64a 509790i bk11: 64a 509800i bk12: 64a 509264i bk13: 64a 509142i bk14: 64a 508432i bk15: 64a 508374i 
dram_util_bins: 0 0 0 0 0 0 0 0 0 0
dram_eff_bins: 0 0 0 0 0 0 0 0 0 0
mrqq: max=16 avg=0.0684329
Memory Partition 5: 
Cache L2_bank_010:
MSHR contents

Cache L2_bank_011:
MSHR contents

In Dram Latency Queue (total = 0): 
DRAM[5]: 16 bks, busW=4 BL=8 CL=12, tRRD=2 tCCD=6, tRCD=12 tRAS=28 tRP=12 tRC=40
n_cmd=509959 n_nop=507833 n_act=22 n_pre=6 n_req=1561 n_rd=1074 n_write=1024 bw_util=0.008228
n_activity=13165 dram_eff=0.3187
bk0: 78a 508750i bk1: 80a 508738i bk2: 76a 508808i bk3: 72a 508793i bk4: 64a 509104i bk5: 64a 509090i bk6: 64a 509689i bk7: 64a 509723i bk8: 64a 509813i bk9: 64a 509809i bk10: 64a 509785i bk11: 64a 509761i bk12: 64a 509266i bk13: 64a 509254i bk14: 64a 508454i bk15: 64a 508392i 
dram_util_bins: 0 0 0 0 0 0 0 0 0 0
dram_eff_bins: 0 0 0 0 0 0 0 0 0 0
mrqq: max=16 avg=0.074053

========= L2 cache stats =========
L2_cache_bank[0]: Access = 4867, Miss = 271, Miss_rate = 0.056, Pending_hits = 429, Reservation_fails = 2382
L2_cache_bank[1]: Access = 4679, Miss = 269, Miss_rate = 0.057, Pending_hits = 427, Reservation_fails = 1884
L2_cache_bank[2]: Access = 4804, Miss = 270, Miss_rate = 0.056, Pending_hits = 426, Reservation_fails = 1762
L2_cache_bank[3]: Access = 4447, Miss = 268, Miss_rate = 0.060, Pending_hits = 420, Reservation_fails = 1633
L2_cache_bank[4]: Access = 4862, Miss = 270, Miss_rate = 0.056, Pending_hits = 428, Reservation_fails = 2221
L2_cache_bank[5]: Access = 4519, Miss = 269, Miss_rate = 0.060, Pending_hits = 423, Reservation_fails = 2257
L2_cache_bank[6]: Access = 4796, Miss = 270, Miss_rate = 0.056, Pending_hits = 426, Reservation_fails = 2211
L2_cache_bank[7]: Access = 4461, Miss = 268, Miss_rate = 0.060, Pending_hits = 420, Reservation_fails = 1564
L2_cache_bank[8]: Access = 4843, Miss = 270, Miss_rate = 0.056, Pending_hits = 426, Reservation_fails = 1839
L2_cache_bank[9]: Access = 4513, Miss = 268, Miss_rate = 0.059, Pending_hits = 424, Reservation_fails = 2033
L2_cache_bank[10]: Access = 4625, Miss = 269, Miss_rate = 0.058, Pending_hits = 420, Reservation_fails = 1499
L2_cache_bank[11]: Access = 4458, Miss = 268, Miss_rate = 0.060, Pending_hits = 420, Reservation_fails = 1436
L2_total_cache_accesses = 55874
L2_total_cache_misses = 3230
L2_total_cache_miss_rate = 0.0578
L2_total_cache_pending_hits = 5089
L2_total_cache_reservation_fails = 22721
L2_total_cache_breakdown:
	L2_cache_stats_breakdown[GLOBAL_ACC_R][HIT] = 257
	L2_cache_stats_breakdown[GLOBAL_ACC_R][HIT_RESERVED] = 17
	L2_cache_stats_breakdown[GLOBAL_ACC_R][MISS] = 1537
	L2_cache_stats_breakdown[CONST_ACC_R][HIT] = 11
	L2_cache_stats_breakdown[CONST_ACC_R][HIT_RESERVED] = 3
	L2_cache_stats_breakdown[CONST_ACC_R][MISS] = 1
	L2_cache_stats_breakdown[CONST_ACC_R][RESERVATION_FAIL] = 109
	L2_cache_stats_breakdown[GLOBAL_ACC_W][HIT] = 18432
	L2_cache_stats_breakdown[GLOBAL_ACC_W][HIT_RESERVED] = 4608
	L2_cache_stats_breakdown[GLOBAL_ACC_W][MISS] = 1536
	L2_cache_stats_breakdown[GLOBAL_ACC_W][RESERVATION_FAIL] = 8461
	L2_cache_stats_breakdown[INST_ACC_R][HIT] = 28855
	L2_cache_stats_breakdown[INST_ACC_R][HIT_RESERVED] = 461
	L2_cache_stats_breakdown[INST_ACC_R][MISS] = 156
	L2_cache_stats_breakdown[INST_ACC_R][RESERVATION_FAIL] = 14151
L2_cache_data_port_util = 0.029
L2_cache_fill_port_util = 0.003

icnt_total_pkts_mem_to_simt=181036
icnt_total_pkts_simt_to_mem=80450
LD_mem_lat_dist  0 0 0 0 0 0 0 0 0 0 0 0 0 0 0 0 0 0 0 0 0 0 0 0 0 0 0
ST_mem_lat_dist  0 0 0 0 0 0 0 0 0 0 0 0 0 0 0 0 0 0 0 0 0 0 0 0 0 0 0
----------------------------Interconnect-DETAILS--------------------------------
Class 0:
Packet latency average = 14.8828
	minimum = 6
	maximum = 313
Network latency average = 11.545
	minimum = 6
	maximum = 289
Slowest packet = 6821
Flit latency average = 9.16981
	minimum = 6
	maximum = 288
Slowest flit = 18385
Fragmentation average = 0.00276515
	minimum = 0
	maximum = 170
Injected packet rate average = 0.0107131
	minimum = 0.00751424 (at node 5)
	maximum = 0.0125979 (at node 15)
Accepted packet rate average = 0.0107131
	minimum = 0.00751424 (at node 5)
	maximum = 0.0125979 (at node 15)
Injected flit rate average = 0.0250682
	minimum = 0.0114901 (at node 5)
	maximum = 0.0417205 (at node 19)
Accepted flit rate average= 0.0250682
	minimum = 0.0168119 (at node 18)
	maximum = 0.0384798 (at node 6)
Injected packet length average = 2.33996
Accepted packet length average = 2.33996
Total in-flight flits = 0 (0 measured)
====== Overall Traffic Statistics ======
====== Traffic class 0 ======
Packet latency average = 14.8828 (1 samples)
	minimum = 6 (1 samples)
	maximum = 313 (1 samples)
Network latency average = 11.545 (1 samples)
	minimum = 6 (1 samples)
	maximum = 289 (1 samples)
Flit latency average = 9.16981 (1 samples)
	minimum = 6 (1 samples)
	maximum = 288 (1 samples)
Fragmentation average = 0.00276515 (1 samples)
	minimum = 0 (1 samples)
	maximum = 170 (1 samples)
Injected packet rate average = 0.0107131 (1 samples)
	minimum = 0.00751424 (1 samples)
	maximum = 0.0125979 (1 samples)
Accepted packet rate average = 0.0107131 (1 samples)
	minimum = 0.00751424 (1 samples)
	maximum = 0.0125979 (1 samples)
Injected flit rate average = 0.0250682 (1 samples)
	minimum = 0.0114901 (1 samples)
	maximum = 0.0417205 (1 samples)
Accepted flit rate average = 0.0250682 (1 samples)
	minimum = 0.0168119 (1 samples)
	maximum = 0.0384798 (1 samples)
Injected packet size average = 2.33996 (1 samples)
Accepted packet size average = 2.33996 (1 samples)
Hops average = 1 (1 samples)
----------------------------END-of-Interconnect-DETAILS-------------------------


gpgpu_simulation_time = 0 days, 0 hrs, 25 min, 40 sec (1540 sec)
gpgpu_simulation_rate = 81643 (inst/sec)
gpgpu_simulation_rate = 250 (cycle/sec)
GPGPU-Sim: synchronize waiting for inactive GPU simulation
GPGPU-Sim API: Stream Manager State
GPGPU-Sim: detected inactive GPU simulation thread

== GPU Timing ==
GPU init                 : 0.008000
Host input buffer alloc  : 0.009000
-----
Host output buffer alloc : 0.005000
GPU memory alloc         : 0.003000
Data copy in             : 26.025000
Kernel execution         : 1537561.500000
Data copy out            : 26.010000
Last hasing stage        : 0.000000
GPU Proc. Time (gpu init and input alloc are not included):  1537613.500000 

== CPU Execution Context ==
Threads       : 128
Blocks        : 384
Total Threads : 49152
Total Size    : 196656
Chunk Size    : 52
Padding       : 0

CPU Processing time(ms):    30.723000 

Output size: 196608
Test PASSED
CPU GPU
FD FD
DD DD
2 2
F9 F9
