

        *** GPGPU-Sim Simulator Version 3.2.2  [build 0] ***


GPGPU-Sim PTX: simulation mode 0 (can change with PTX_SIM_MODE_FUNC environment variable:
               1=functional simulation only, 0=detailed performance simulator)
GPGPU-Sim: Configuration options:

-network_mode                           1 # Interconnection network mode
-inter_config_file   config_fermi_islip.icnt # Interconnection network config file
-gpgpu_ptx_use_cuobjdump                    1 # Use cuobjdump to extract ptx and sass from binaries
-gpgpu_experimental_lib_support                    0 # Try to extract code from cuda libraries [Broken because of unknown cudaGetExportTable]
-gpgpu_ptx_convert_to_ptxplus                    0 # Convert SASS (native ISA) to ptxplus and run ptxplus
-gpgpu_ptx_force_max_capability                   20 # Force maximum compute capability
-gpgpu_ptx_inst_debug_to_file                    0 # Dump executed instructions' debug information to file
-gpgpu_ptx_inst_debug_file       inst_debug.txt # Executed instructions' debug output file
-gpgpu_ptx_inst_debug_thread_uid                    1 # Thread UID for executed instructions' debug output
-gpgpu_simd_model                       1 # 1 = post-dominator
-gpgpu_shader_core_pipeline          1536:256:32 # shader core pipeline config, i.e., {<nthread>:<warpsize>}
-gpgpu_tex_cache:l1  4:128:24,L:R:m:N:L,F:128:4,128:2 # per-shader L1 texture cache  (READ-ONLY) config  {<nsets>:<bsize>:<assoc>,<rep>:<wr>:<alloc>:<wr_alloc>,<mshr>:<N>:<merge>,<mq>:<rf>}
-gpgpu_const_cache:l1 64:64:2,L:R:f:N:L,A:2:32,4 # per-shader L1 constant memory cache  (READ-ONLY) config  {<nsets>:<bsize>:<assoc>,<rep>:<wr>:<alloc>:<wr_alloc>,<mshr>:<N>:<merge>,<mq>} 
-gpgpu_cache:il1     4:128:4,L:R:f:N:L,A:2:32,4 # shader L1 instruction cache config  {<nsets>:<bsize>:<assoc>,<rep>:<wr>:<alloc>:<wr_alloc>,<mshr>:<N>:<merge>,<mq>} 
-gpgpu_cache:dl1     32:128:4,L:L:m:N:H,A:32:8,8 # per-shader L1 data cache config  {<nsets>:<bsize>:<assoc>,<rep>:<wr>:<alloc>:<wr_alloc>,<mshr>:<N>:<merge>,<mq> | none}
-gpgpu_cache:dl1PrefL1                 none # per-shader L1 data cache config  {<nsets>:<bsize>:<assoc>,<rep>:<wr>:<alloc>:<wr_alloc>,<mshr>:<N>:<merge>,<mq> | none}
-gpgpu_cache:dl1PreShared                 none # per-shader L1 data cache config  {<nsets>:<bsize>:<assoc>,<rep>:<wr>:<alloc>:<wr_alloc>,<mshr>:<N>:<merge>,<mq> | none}
-gmem_skip_L1D                          0 # global memory access skip L1D cache (implements -Xptxas -dlcm=cg, default=no skip)
-gpgpu_perfect_mem                      0 # enable perfect memory mode (no cache miss)
-n_regfile_gating_group                    4 # group of lanes that should be read/written together)
-gpgpu_clock_gated_reg_file                    0 # enable clock gated reg file for power calculations
-gpgpu_clock_gated_lanes                    0 # enable clock gated lanes for power calculations
-gpgpu_shader_registers                32768 # Number of registers per shader core. Limits number of concurrent CTAs. (default 8192)
-gpgpu_shader_cta                       8 # Maximum number of concurrent CTAs in shader (default 8)
-gpgpu_num_cta_barriers                   16 # Maximum number of named barriers per CTA (default 16)
-gpgpu_n_clusters                      15 # number of processing clusters
-gpgpu_n_cores_per_cluster                    1 # number of simd cores per cluster
-gpgpu_n_cluster_ejection_buffer_size                    8 # number of packets in ejection buffer
-gpgpu_n_ldst_response_buffer_size                    2 # number of response packets in ld/st unit ejection buffer
-gpgpu_shmem_size                   16384 # Size of shared memory per shader core (default 16kB)
-gpgpu_shmem_size                   49152 # Size of shared memory per shader core (default 16kB)
-gpgpu_shmem_size_PrefL1                16384 # Size of shared memory per shader core (default 16kB)
-gpgpu_shmem_size_PrefShared                16384 # Size of shared memory per shader core (default 16kB)
-gpgpu_shmem_num_banks                   32 # Number of banks in the shared memory in each shader core (default 16)
-gpgpu_shmem_limited_broadcast                    0 # Limit shared memory to do one broadcast per cycle (default on)
-gpgpu_shmem_warp_parts                    1 # Number of portions a warp is divided into for shared memory bank conflict check 
-gpgpu_warpdistro_shader                   -1 # Specify which shader core to collect the warp size distribution from
-gpgpu_warp_issue_shader                    0 # Specify which shader core to collect the warp issue distribution from
-gpgpu_local_mem_map                    1 # Mapping from local memory space address to simulated GPU physical address space (default = enabled)
-gpgpu_num_reg_banks                   16 # Number of register banks (default = 8)
-gpgpu_reg_bank_use_warp_id                    0 # Use warp ID in mapping registers to banks (default = off)
-gpgpu_operand_collector_num_units_sp                    6 # number of collector units (default = 4)
-gpgpu_operand_collector_num_units_sfu                    8 # number of collector units (default = 4)
-gpgpu_operand_collector_num_units_mem                    2 # number of collector units (default = 2)
-gpgpu_operand_collector_num_units_gen                    0 # number of collector units (default = 0)
-gpgpu_operand_collector_num_in_ports_sp                    2 # number of collector unit in ports (default = 1)
-gpgpu_operand_collector_num_in_ports_sfu                    1 # number of collector unit in ports (default = 1)
-gpgpu_operand_collector_num_in_ports_mem                    1 # number of collector unit in ports (default = 1)
-gpgpu_operand_collector_num_in_ports_gen                    0 # number of collector unit in ports (default = 0)
-gpgpu_operand_collector_num_out_ports_sp                    2 # number of collector unit in ports (default = 1)
-gpgpu_operand_collector_num_out_ports_sfu                    1 # number of collector unit in ports (default = 1)
-gpgpu_operand_collector_num_out_ports_mem                    1 # number of collector unit in ports (default = 1)
-gpgpu_operand_collector_num_out_ports_gen                    0 # number of collector unit in ports (default = 0)
-gpgpu_coalesce_arch                   13 # Coalescing arch (default = 13, anything else is off for now)
-gpgpu_num_sched_per_core                    1 # Number of warp schedulers per core
-gpgpu_max_insn_issue_per_warp                    1 # Max number of instructions that can be issued per warp in one cycle by scheduler
-gpgpu_simt_core_sim_order                    1 # Select the simulation order of cores in a cluster (0=Fix, 1=Round-Robin)
-gpgpu_pipeline_widths        2,1,1,2,1,1,2 # Pipeline widths ID_OC_SP,ID_OC_SFU,ID_OC_MEM,OC_EX_SP,OC_EX_SFU,OC_EX_MEM,EX_WB
-gpgpu_num_sp_units                     2 # Number of SP units (default=1)
-gpgpu_num_sfu_units                    1 # Number of SF units (default=1)
-gpgpu_num_mem_units                    1 # Number if ldst units (default=1) WARNING: not hooked up to anything
-gpgpu_scheduler                      gto # Scheduler configuration: < lrr | gto | two_level_active > If two_level_active:<num_active_warps>:<inner_prioritization>:<outer_prioritization>For complete list of prioritization values see shader.h enum scheduler_prioritization_typeDefault: gto
-gpgpu_dram_scheduler                    1 # 0 = fifo, 1 = FR-FCFS (defaul)
-gpgpu_dram_partition_queues              8:8:8:8 # i2$:$2d:d2$:$2i
-l2_ideal                               0 # Use a ideal L2 cache that always hit
-gpgpu_cache:dl2     64:128:8,L:B:m:W:L,A:32:4,4:0,32 # unified banked L2 data cache config  {<nsets>:<bsize>:<assoc>,<rep>:<wr>:<alloc>:<wr_alloc>,<mshr>:<N>:<merge>,<mq>}
-gpgpu_cache:dl2_texture_only                    0 # L2 cache used for texture only
-gpgpu_n_mem                            6 # number of memory modules (e.g. memory controllers) in gpu
-gpgpu_n_sub_partition_per_mchannel                    2 # number of memory subpartition in each memory module
-gpgpu_n_mem_per_ctrlr                    2 # number of memory chips per memory controller
-gpgpu_memlatency_stat                   14 # track and display latency statistics 0x2 enables MC, 0x4 enables queue logs
-gpgpu_frfcfs_dram_sched_queue_size                   16 # 0 = unlimited (default); # entries per chip
-gpgpu_dram_return_queue_size                  116 # 0 = unlimited (default); # entries per chip
-gpgpu_dram_buswidth                    4 # default = 4 bytes (8 bytes per cycle at DDR)
-gpgpu_dram_burst_length                    8 # Burst length of each DRAM request (default = 4 data bus cycle)
-dram_data_command_freq_ratio                    4 # Frequency ratio between DRAM data bus and command bus (default = 2 times, i.e. DDR)
-gpgpu_dram_timing_opt nbk=16:CCD=2:RRD=6:RCD=12:RAS=28:RP=12:RC=40: CL=12:WL=4:CDLR=5:WR=12:nbkgrp=4:CCDL=3:RTPL=2 # DRAM timing parameters = {nbk:tCCD:tRRD:tRCD:tRAS:tRP:tRC:CL:WL:tCDLR:tWR:nbkgrp:tCCDL:tRTPL}
-rop_latency                          120 # ROP queue latency (default 85)
-dram_latency                         100 # DRAM latency (default 30)
-gpgpu_mem_addr_mapping dramid@8;00000000.00000000.00000000.00000000.0000RRRR.RRRRRRRR.BBBCCCCB.CCSSSSSS # mapping memory address to dram model {dramid@<start bit>;<memory address map>}
-gpgpu_mem_addr_test                    0 # run sweep test to check address mapping for aliased address
-gpgpu_mem_address_mask                    1 # 0 = old addressing mask, 1 = new addressing mask, 2 = new add. mask + flipped bank sel and chip sel bits
-gpuwattch_xml_file  gpuwattch_gtx480.xml # GPUWattch XML file
-power_simulation_enabled                    1 # Turn on power simulator (1=On, 0=Off)
-power_per_cycle_dump                    0 # Dump detailed power output each cycle
-power_trace_enabled                    0 # produce a file for the power trace (1=On, 0=Off)
-power_trace_zlevel                     6 # Compression level of the power trace output log (0=no comp, 9=highest)
-steady_power_levels_enabled                    0 # produce a file for the steady power levels (1=On, 0=Off)
-steady_state_definition                  8:4 # allowed deviation:number of samples
-gpgpu_max_cycle                        0 # terminates gpu simulation early (0 = no limit)
-gpgpu_max_insn                         0 # terminates gpu simulation early (0 = no limit)
-gpgpu_max_cta                          0 # terminates gpu simulation early (0 = no limit)
-gpgpu_runtime_stat                   500 # display runtime statistics such as dram utilization {<freq>:<flag>}
-liveness_message_freq                    1 # Minimum number of seconds between simulation liveness messages (0 = always print)
-gpgpu_flush_l1_cache                    0 # Flush L1 cache at the end of each kernel call
-gpgpu_flush_l2_cache                    0 # Flush L2 cache at the end of each kernel call
-gpgpu_deadlock_detect                    1 # Stop the simulation at deadlock (1=on (default), 0=off)
-gpgpu_ptx_instruction_classification                    0 # if enabled will classify ptx instruction types per kernel (Max 255 kernels now)
-gpgpu_ptx_sim_mode                     0 # Select between Performance (default) or Functional simulation (1)
-gpgpu_clock_domains 700.0:700.0:700.0:924.0 # Clock Domain Frequencies in MhZ {<Core Clock>:<ICNT Clock>:<L2 Clock>:<DRAM Clock>}
-gpgpu_max_concurrent_kernel                    8 # maximum kernels that can run concurrently on GPU
-gpgpu_cflog_interval                    0 # Interval between each snapshot in control flow logger
-visualizer_enabled                     0 # Turn on visualizer output (1=On, 0=Off)
-visualizer_outputfile                 NULL # Specifies the output log file for visualizer
-visualizer_zlevel                      6 # Compression level of the visualizer output log (0=no comp, 9=highest)
-trace_enabled                          0 # Turn on traces
-trace_components                    none # comma seperated list of traces to enable. Complete list found in trace_streams.tup. Default none
-trace_sampling_core                    0 # The core which is printed using CORE_DPRINTF. Default 0
-trace_sampling_memory_partition                   -1 # The memory partition which is printed using MEMPART_DPRINTF. Default -1 (i.e. all)
-enable_ptx_file_line_stats                    1 # Turn on PTX source line statistic profiling. (1 = On)
-ptx_line_stats_filename gpgpu_inst_stats.txt # Output file for PTX source line statistics.
-save_embedded_ptx                      0 # saves ptx files embedded in binary as <n>.ptx
-keep                                   0 # keep intermediate files created by GPGPU-Sim when interfacing with external programs
-gpgpu_ptx_save_converted_ptxplus                    0 # Saved converted ptxplus to a file
-ptx_opcode_latency_int         4,13,4,5,145 # Opcode latencies for integers <ADD,MAX,MUL,MAD,DIV>Default 1,1,19,25,145
-ptx_opcode_latency_fp          4,13,4,5,39 # Opcode latencies for single precision floating points <ADD,MAX,MUL,MAD,DIV>Default 1,1,1,1,30
-ptx_opcode_latency_dp         8,19,8,8,330 # Opcode latencies for double precision floating points <ADD,MAX,MUL,MAD,DIV>Default 8,8,8,8,335
-ptx_opcode_initiation_int            1,2,2,1,8 # Opcode initiation intervals for integers <ADD,MAX,MUL,MAD,DIV>Default 1,1,4,4,32
-ptx_opcode_initiation_fp            1,2,1,1,4 # Opcode initiation intervals for single precision floating points <ADD,MAX,MUL,MAD,DIV>Default 1,1,1,1,5
-ptx_opcode_initiation_dp         8,16,8,8,130 # Opcode initiation intervals for double precision floating points <ADD,MAX,MUL,MAD,DIV>Default 8,8,8,8,130
ESHA: SIMD Width was found to be : 32
DRAM Timing Options:
nbk                                    16 # number of banks
CCD                                     2 # column to column delay
RRD                                     6 # minimal delay between activation of rows in different banks
RCD                                    12 # row to column delay
RAS                                    28 # time needed to activate row
RP                                     12 # time needed to precharge (deactivate) row
RC                                     40 # row cycle time
CDLR                                    5 # switching from write to read (changes tWTR)
WR                                     12 # last data-in to row precharge
CL                                     12 # CAS latency
WL                                      4 # Write latency
nbkgrp                                  4 # number of bank groups
CCDL                                    3 # column to column delay between accesses to different bank groups
RTPL                                    2 # read to precharge delay between accesses to different bank groups
Total number of memory sub partition = 12
addr_dec_mask[CHIP]  = 0000000000000000 	high:64 low:0
addr_dec_mask[BK]    = 000000000000e100 	high:16 low:8
addr_dec_mask[ROW]   = 000000000fff0000 	high:28 low:16
addr_dec_mask[COL]   = 0000000000001eff 	high:13 low:0
addr_dec_mask[BURST] = 000000000000003f 	high:6 low:0
sub_partition_id_mask = 0000000000000100
GPGPU-Sim uArch: clock freqs: 700000000.000000:700000000.000000:700000000.000000:924000000.000000
GPGPU-Sim uArch: clock periods: 0.00000000142857142857:0.00000000142857142857:0.00000000142857142857:0.00000000108225108225
ESHA_CHANGED: in shader config simd is  32 
*** Initializing Memory Statistics ***
GPGPU-Sim uArch: interconnect node map (shaderID+MemID to icntID)
GPGPU-Sim uArch: Memory nodes ID start from index: 15
GPGPU-Sim uArch:    0   1   2   3   4
GPGPU-Sim uArch:    5   6   7   8   9
GPGPU-Sim uArch:   10  11  12  13  14
GPGPU-Sim uArch:   15  16  17  18  19
GPGPU-Sim uArch:   20  21  22  23  24
GPGPU-Sim uArch:   25  26
GPGPU-Sim uArch: interconnect node reverse map (icntID to shaderID+MemID)
GPGPU-Sim uArch: Memory nodes start from ID: 15
GPGPU-Sim uArch:    0   1   2   3   4
GPGPU-Sim uArch:    5   6   7   8   9
GPGPU-Sim uArch:   10  11  12  13  14
GPGPU-Sim uArch:   15  16  17  18  19
GPGPU-Sim uArch:   20  21  22  23  24
GPGPU-Sim uArch:   25  26
185d153370a1c7baba053f5ed71cf285  /home/kishore/project_source/gpu_class_proj/gpgpusim-benchmarks-master/bin/release/STO
GPGPU-Sim uArch: performance model initialization complete.
GPGPU-Sim PTX: __cudaRegisterFatBinary, fat_cubin_handle = 1, filename=main.cu
self exe links to: /home/kishore/project_source/gpu_class_proj/gpgpusim-benchmarks-master/bin/release/STO
Running md5sum using "md5sum /home/kishore/project_source/gpu_class_proj/gpgpusim-benchmarks-master/bin/release/STO "
Running cuobjdump using "$CUDA_INSTALL_PATH/bin/cuobjdump -ptx -elf -sass /home/kishore/project_source/gpu_class_proj/gpgpusim-benchmarks-master/bin/release/STO > _cuobjdump_complete_output_E1CKiM"
Parsing file _cuobjdump_complete_output_E1CKiM
######### cuobjdump parser ########
## Adding new section PTX
Adding ptx filename: _cuobjdump_1.ptx
Adding arch: sm_10
Adding identifier: main.cu
## Adding new section ELF
Adding arch: sm_10
Adding identifier: main.cu
## Adding new section ELF
Adding arch: sm_20
Adding identifier: main.cu
## Adding new section PTX
Adding ptx filename: _cuobjdump_2.ptx
Adding arch: sm_20
Adding identifier: main.cu
## Adding new section PTX
Adding ptx filename: _cuobjdump_3.ptx
Adding arch: sm_10
Adding identifier: storeGPU.cu
## Adding new section ELF
Adding arch: sm_10
Adding identifier: storeGPU.cu
## Adding new section ELF
Adding arch: sm_20
Adding identifier: storeGPU.cu
## Adding new section PTX
Adding ptx filename: _cuobjdump_4.ptx
Adding arch: sm_20
Adding identifier: storeGPU.cu
Done parsing!!!
GPGPU-Sim PTX: __cudaRegisterFatBinary, fat_cubin_handle = 2, filename=storeGPU.cu
GPGPU-Sim PTX: __cudaRegisterFunction _Z12sha1_overlapPhiiiiS_ : hostFun 0x0x407f90, fat_cubin_handle = 2
GPGPU-Sim PTX: allocating stack frame region for .param "__cudaretf__Z14macroRFunctioniPj" from 0x0 to 0x8
GPGPU-Sim PTX: allocating stack frame region for .param "__cudaparmf1__Z14macroRFunctioniPj" from 0x8 to 0xc
GPGPU-Sim PTX: allocating stack frame region for .param "__cudaparmf2__Z14macroRFunctioniPj" from 0xc to 0x14
GPGPU-Sim PTX: instruction assembly for function '_Z14macroRFunctioniPj'...   done.
GPGPU-Sim PTX: finding reconvergence points for '_Z14macroRFunctioniPj'...
GPGPU-Sim PTX: Finding dominators for '_Z14macroRFunctioniPj'...
GPGPU-Sim PTX: Finding immediate dominators for '_Z14macroRFunctioniPj'...
GPGPU-Sim PTX: Finding postdominators for '_Z14macroRFunctioniPj'...
GPGPU-Sim PTX: Finding immediate postdominators for '_Z14macroRFunctioniPj'...
GPGPU-Sim PTX: pre-decoding instructions for '_Z14macroRFunctioniPj'...
GPGPU-Sim PTX: reconvergence points for _Z14macroRFunctioniPj...
GPGPU-Sim PTX: ... end of reconvergence points for _Z14macroRFunctioniPj
GPGPU-Sim PTX: ... done pre-decoding instructions for '_Z14macroRFunctioniPj'.
GPGPU-Sim PTX: allocating shared region for "__cuda___cuda_local_var_36043_40_non_const_sharedMemory32" from 0x0 to 0x3f80 (shared memory space)
GPGPU-Sim PTX: instruction assembly for function '_Z3md5PhiiiS_'...   done.
GPGPU-Sim PTX: finding reconvergence points for '_Z3md5PhiiiS_'...
GPGPU-Sim PTX: Finding dominators for '_Z3md5PhiiiS_'...
GPGPU-Sim PTX: Finding immediate dominators for '_Z3md5PhiiiS_'...
GPGPU-Sim PTX: Finding postdominators for '_Z3md5PhiiiS_'...
GPGPU-Sim PTX: Finding immediate postdominators for '_Z3md5PhiiiS_'...
GPGPU-Sim PTX: pre-decoding instructions for '_Z3md5PhiiiS_'...
GPGPU-Sim PTX: reconvergence points for _Z3md5PhiiiS_...
GPGPU-Sim PTX:  1 (potential) branch divergence @  PC=0x190 (_2.ptx:127) @%p1 bra $Lt_1_4866;
GPGPU-Sim PTX:    immediate post dominator      @  PC=0x21f0 (_2.ptx:1283) exit;
GPGPU-Sim PTX:  2 (potential) branch divergence @  PC=0x198 (_2.ptx:128) bra.uni $LBB20__Z3md5PhiiiS_;
GPGPU-Sim PTX:    immediate post dominator      @  PC=0x21f0 (_2.ptx:1283) exit;
GPGPU-Sim PTX:  3 (potential) branch divergence @  PC=0x1f0 (_2.ptx:141) @%p3 bra $Lt_1_5634;
GPGPU-Sim PTX:    immediate post dominator      @  PC=0x290 (_2.ptx:167) shr.s32 %r23, %r15, 31;
GPGPU-Sim PTX:  4 (potential) branch divergence @  PC=0x200 (_2.ptx:143) @!%p2 bra $Lt_1_5378;
GPGPU-Sim PTX:    immediate post dominator      @  PC=0x290 (_2.ptx:167) shr.s32 %r23, %r15, 31;
GPGPU-Sim PTX:  5 (potential) branch divergence @  PC=0x278 (_2.ptx:161) @%p4 bra $Lt_1_6402;
GPGPU-Sim PTX:    immediate post dominator      @  PC=0x280 (_2.ptx:162) bra.uni $Lt_1_5378;
GPGPU-Sim PTX:  6 (potential) branch divergence @  PC=0x280 (_2.ptx:162) bra.uni $Lt_1_5378;
GPGPU-Sim PTX:    immediate post dominator      @  PC=0x290 (_2.ptx:167) shr.s32 %r23, %r15, 31;
GPGPU-Sim PTX:  7 (potential) branch divergence @  PC=0x2d0 (_2.ptx:175) @%p5 bra $Lt_1_8706;
GPGPU-Sim PTX:    immediate post dominator      @  PC=0x2198 (_2.ptx:1270) mul.lo.s32 %r234, %r5, 4;
GPGPU-Sim PTX:  8 (potential) branch divergence @  PC=0x4e8 (_2.ptx:257) @%p6 bra $Lt_1_7938;
GPGPU-Sim PTX:    immediate post dominator      @  PC=0x560 (_2.ptx:281) ld.shared.u8 %r69, [%rd20+0];
GPGPU-Sim PTX:  9 (potential) branch divergence @  PC=0x520 (_2.ptx:267) bra.uni $Lt_1_7682;
GPGPU-Sim PTX:    immediate post dominator      @  PC=0x560 (_2.ptx:281) ld.shared.u8 %r69, [%rd20+0];
GPGPU-Sim PTX: 10 (potential) branch divergence @  PC=0x2180 (_2.ptx:1264) @%p7 bra $Lt_1_7426;
GPGPU-Sim PTX:    immediate post dominator      @  PC=0x2188 (_2.ptx:1265) bra.uni $Lt_1_6914;
GPGPU-Sim PTX: 11 (potential) branch divergence @  PC=0x2188 (_2.ptx:1265) bra.uni $Lt_1_6914;
GPGPU-Sim PTX:    immediate post dominator      @  PC=0x2198 (_2.ptx:1270) mul.lo.s32 %r234, %r5, 4;
GPGPU-Sim PTX: ... end of reconvergence points for _Z3md5PhiiiS_
GPGPU-Sim PTX: ... done pre-decoding instructions for '_Z3md5PhiiiS_'.
GPGPU-Sim PTX: allocating shared region for "__cuda___cuda_local_var_36078_40_non_const_sharedMemory16320" from 0x0 to 0x3f80 (shared memory space)
GPGPU-Sim PTX: instruction assembly for function '_Z11md5_overlapPhiiiiS_'...   done.
GPGPU-Sim PTX: finding reconvergence points for '_Z11md5_overlapPhiiiiS_'...
GPGPU-Sim PTX: Finding dominators for '_Z11md5_overlapPhiiiiS_'...
GPGPU-Sim PTX: Finding immediate dominators for '_Z11md5_overlapPhiiiiS_'...
GPGPU-Sim PTX: Finding postdominators for '_Z11md5_overlapPhiiiiS_'...
GPGPU-Sim PTX: Finding immediate postdominators for '_Z11md5_overlapPhiiiiS_'...
GPGPU-Sim PTX: pre-decoding instructions for '_Z11md5_overlapPhiiiiS_'...
GPGPU-Sim PTX: reconvergence points for _Z11md5_overlapPhiiiiS_...
GPGPU-Sim PTX:  1 (potential) branch divergence @  PC=0x2230 (_2.ptx:1308) @%p1 bra $Lt_2_5634;
GPGPU-Sim PTX:    immediate post dominator      @  PC=0x43e8 (_2.ptx:2510) exit;
GPGPU-Sim PTX:  2 (potential) branch divergence @  PC=0x2238 (_2.ptx:1309) bra.uni $LBB23__Z11md5_overlapPhiiiiS_;
GPGPU-Sim PTX:    immediate post dominator      @  PC=0x43e8 (_2.ptx:2510) exit;
GPGPU-Sim PTX:  3 (potential) branch divergence @  PC=0x22b0 (_2.ptx:1326) @%p3 bra $Lt_2_9730;
GPGPU-Sim PTX:    immediate post dominator      @  PC=0x4390 (_2.ptx:2497) mul.lo.s32 %r260, %r5, 4;
GPGPU-Sim PTX:  4 (potential) branch divergence @  PC=0x2440 (_2.ptx:1378) @%p4 bra $Lt_2_7170;
GPGPU-Sim PTX:    immediate post dominator      @  PC=0x2768 (_2.ptx:1510) ld.shared.u8 %r95, [%rd15+0];
GPGPU-Sim PTX:  5 (potential) branch divergence @  PC=0x2488 (_2.ptx:1387) @%p5 bra $Lt_2_9986;
GPGPU-Sim PTX:    immediate post dominator      @  PC=0x2520 (_2.ptx:1411) mov.s32 %r62, 13;
GPGPU-Sim PTX:  6 (potential) branch divergence @  PC=0x2500 (_2.ptx:1405) @%p6 bra $Lt_2_7938;
GPGPU-Sim PTX:    immediate post dominator      @  PC=0x2508 (_2.ptx:1406) mov.s32 %r61, %r52;
GPGPU-Sim PTX:  7 (potential) branch divergence @  PC=0x2510 (_2.ptx:1407) bra.uni $Lt_2_7426;
GPGPU-Sim PTX:    immediate post dominator      @  PC=0x2520 (_2.ptx:1411) mov.s32 %r62, 13;
GPGPU-Sim PTX:  8 (potential) branch divergence @  PC=0x2540 (_2.ptx:1415) @%p7 bra $Lt_2_8450;
GPGPU-Sim PTX:    immediate post dominator      @  PC=0x25e0 (_2.ptx:1440) mov.u32 %r72, 128;
GPGPU-Sim PTX:  9 (potential) branch divergence @  PC=0x25d8 (_2.ptx:1437) @%p8 bra $Lt_2_8962;
GPGPU-Sim PTX:    immediate post dominator      @  PC=0x25e0 (_2.ptx:1440) mov.u32 %r72, 128;
GPGPU-Sim PTX: 10 (potential) branch divergence @  PC=0x2640 (_2.ptx:1454) bra.uni $Lt_2_6914;
GPGPU-Sim PTX:    immediate post dominator      @  PC=0x2768 (_2.ptx:1510) ld.shared.u8 %r95, [%rd15+0];
GPGPU-Sim PTX: 11 (potential) branch divergence @  PC=0x4378 (_2.ptx:2491) @%p9 bra $Lt_2_6658;
GPGPU-Sim PTX:    immediate post dominator      @  PC=0x4380 (_2.ptx:2492) bra.uni $Lt_2_6146;
GPGPU-Sim PTX: 12 (potential) branch divergence @  PC=0x4380 (_2.ptx:2492) bra.uni $Lt_2_6146;
GPGPU-Sim PTX:    immediate post dominator      @  PC=0x4390 (_2.ptx:2497) mul.lo.s32 %r260, %r5, 4;
GPGPU-Sim PTX: ... end of reconvergence points for _Z11md5_overlapPhiiiiS_
GPGPU-Sim PTX: ... done pre-decoding instructions for '_Z11md5_overlapPhiiiiS_'.
GPGPU-Sim PTX: allocating shared region for "__cuda___cuda_local_var_36930_40_non_const_sharedMemory32608" from 0x0 to 0x3f80 (shared memory space)
GPGPU-Sim PTX: instruction assembly for function '_Z4sha1PhiiiS_'...   done.
GPGPU-Sim PTX: finding reconvergence points for '_Z4sha1PhiiiS_'...
GPGPU-Sim PTX: Finding dominators for '_Z4sha1PhiiiS_'...
GPGPU-Sim PTX: Finding immediate dominators for '_Z4sha1PhiiiS_'...
GPGPU-Sim PTX: Finding postdominators for '_Z4sha1PhiiiS_'...
GPGPU-Sim PTX: Finding immediate postdominators for '_Z4sha1PhiiiS_'...
GPGPU-Sim PTX: pre-decoding instructions for '_Z4sha1PhiiiS_'...
GPGPU-Sim PTX: reconvergence points for _Z4sha1PhiiiS_...
GPGPU-Sim PTX:  1 (potential) branch divergence @  PC=0x4428 (_2.ptx:2534) @%p1 bra $Lt_3_4866;
GPGPU-Sim PTX:    immediate post dominator      @  PC=0x9018 (_2.ptx:5165) exit;
GPGPU-Sim PTX:  2 (potential) branch divergence @  PC=0x4430 (_2.ptx:2535) bra.uni $LBB20__Z4sha1PhiiiS_;
GPGPU-Sim PTX:    immediate post dominator      @  PC=0x9018 (_2.ptx:5165) exit;
GPGPU-Sim PTX:  3 (potential) branch divergence @  PC=0x4488 (_2.ptx:2548) @%p3 bra $Lt_3_5634;
GPGPU-Sim PTX:    immediate post dominator      @  PC=0x4528 (_2.ptx:2574) shr.u32 %r23, %r15, 6;
GPGPU-Sim PTX:  4 (potential) branch divergence @  PC=0x4498 (_2.ptx:2550) @!%p2 bra $Lt_3_5378;
GPGPU-Sim PTX:    immediate post dominator      @  PC=0x4528 (_2.ptx:2574) shr.u32 %r23, %r15, 6;
GPGPU-Sim PTX:  5 (potential) branch divergence @  PC=0x4510 (_2.ptx:2568) @%p4 bra $Lt_3_6402;
GPGPU-Sim PTX:    immediate post dominator      @  PC=0x4518 (_2.ptx:2569) bra.uni $Lt_3_5378;
GPGPU-Sim PTX:  6 (potential) branch divergence @  PC=0x4518 (_2.ptx:2569) bra.uni $Lt_3_5378;
GPGPU-Sim PTX:    immediate post dominator      @  PC=0x4528 (_2.ptx:2574) shr.u32 %r23, %r15, 6;
GPGPU-Sim PTX:  7 (potential) branch divergence @  PC=0x4548 (_2.ptx:2578) @%p5 bra $Lt_3_8706;
GPGPU-Sim PTX:    immediate post dominator      @  PC=0x8fc0 (_2.ptx:5152) mul.lo.s32 %r748, %r5, 4;
GPGPU-Sim PTX:  8 (potential) branch divergence @  PC=0x4730 (_2.ptx:2654) @%p6 bra $Lt_3_7938;
GPGPU-Sim PTX:    immediate post dominator      @  PC=0x4820 (_2.ptx:2693) ld.shared.u8 %r69, [%rd21+3];
GPGPU-Sim PTX:  9 (potential) branch divergence @  PC=0x47e0 (_2.ptx:2679) bra.uni $Lt_3_7682;
GPGPU-Sim PTX:    immediate post dominator      @  PC=0x4820 (_2.ptx:2693) ld.shared.u8 %r69, [%rd21+3];
GPGPU-Sim PTX: 10 (potential) branch divergence @  PC=0x8fa8 (_2.ptx:5146) @%p7 bra $Lt_3_7426;
GPGPU-Sim PTX:    immediate post dominator      @  PC=0x8fb0 (_2.ptx:5147) bra.uni $Lt_3_6914;
GPGPU-Sim PTX: 11 (potential) branch divergence @  PC=0x8fb0 (_2.ptx:5147) bra.uni $Lt_3_6914;
GPGPU-Sim PTX:    immediate post dominator      @  PC=0x8fc0 (_2.ptx:5152) mul.lo.s32 %r748, %r5, 4;
GPGPU-Sim PTX: ... end of reconvergence points for _Z4sha1PhiiiS_
GPGPU-Sim PTX: ... done pre-decoding instructions for '_Z4sha1PhiiiS_'.
GPGPU-Sim PTX: allocating shared region for "__cuda___cuda_local_var_36962_40_non_const_sharedMemory48896" from 0x0 to 0x3f80 (shared memory space)
GPGPU-Sim PTX: instruction assembly for function '_Z12sha1_overlapPhiiiiS_'...   done.
GPGPU-Sim PTX: finding reconvergence points for '_Z12sha1_overlapPhiiiiS_'...
GPGPU-Sim PTX: Finding dominators for '_Z12sha1_overlapPhiiiiS_'...
GPGPU-Sim PTX: Finding immediate dominators for '_Z12sha1_overlapPhiiiiS_'...
GPGPU-Sim PTX: Finding postdominators for '_Z12sha1_overlapPhiiiiS_'...
GPGPU-Sim PTX: Finding immediate postdominators for '_Z12sha1_overlapPhiiiiS_'...
GPGPU-Sim PTX: pre-decoding instructions for '_Z12sha1_overlapPhiiiiS_'...
GPGPU-Sim PTX: reconvergence points for _Z12sha1_overlapPhiiiiS_...
GPGPU-Sim PTX:  1 (potential) branch divergence @  PC=0x9058 (_2.ptx:5190) @%p1 bra $Lt_4_5634;
GPGPU-Sim PTX:    immediate post dominator      @  PC=0xde28 (_2.ptx:7884) exit;
GPGPU-Sim PTX:  2 (potential) branch divergence @  PC=0x9060 (_2.ptx:5191) bra.uni $LBB23__Z12sha1_overlapPhiiiiS_;
GPGPU-Sim PTX:    immediate post dominator      @  PC=0xde28 (_2.ptx:7884) exit;
GPGPU-Sim PTX:  3 (potential) branch divergence @  PC=0x90b8 (_2.ptx:5204) @%p3 bra $Lt_4_9730;
GPGPU-Sim PTX:    immediate post dominator      @  PC=0xddd0 (_2.ptx:7871) mul.lo.s32 %r783, %r5, 4;
GPGPU-Sim PTX:  4 (potential) branch divergence @  PC=0x9288 (_2.ptx:5264) @%p4 bra $Lt_4_7170;
GPGPU-Sim PTX:    immediate post dominator      @  PC=0x9628 (_2.ptx:5411) ld.shared.u8 %r101, [%rd15+3];
GPGPU-Sim PTX:  5 (potential) branch divergence @  PC=0x92d0 (_2.ptx:5273) @%p5 bra $Lt_4_9986;
GPGPU-Sim PTX:    immediate post dominator      @  PC=0x9368 (_2.ptx:5297) mov.s32 %r59, 13;
GPGPU-Sim PTX:  6 (potential) branch divergence @  PC=0x9348 (_2.ptx:5291) @%p6 bra $Lt_4_7938;
GPGPU-Sim PTX:    immediate post dominator      @  PC=0x9350 (_2.ptx:5292) mov.s32 %r58, %r49;
GPGPU-Sim PTX:  7 (potential) branch divergence @  PC=0x9358 (_2.ptx:5293) bra.uni $Lt_4_7426;
GPGPU-Sim PTX:    immediate post dominator      @  PC=0x9368 (_2.ptx:5297) mov.s32 %r59, 13;
GPGPU-Sim PTX:  8 (potential) branch divergence @  PC=0x9388 (_2.ptx:5301) @%p7 bra $Lt_4_8450;
GPGPU-Sim PTX:    immediate post dominator      @  PC=0x9428 (_2.ptx:5326) mov.u32 %r69, 128;
GPGPU-Sim PTX:  9 (potential) branch divergence @  PC=0x9420 (_2.ptx:5323) @%p8 bra $Lt_4_8962;
GPGPU-Sim PTX:    immediate post dominator      @  PC=0x9428 (_2.ptx:5326) mov.u32 %r69, 128;
GPGPU-Sim PTX: 10 (potential) branch divergence @  PC=0x9500 (_2.ptx:5355) bra.uni $Lt_4_6914;
GPGPU-Sim PTX:    immediate post dominator      @  PC=0x9628 (_2.ptx:5411) ld.shared.u8 %r101, [%rd15+3];
GPGPU-Sim PTX: 11 (potential) branch divergence @  PC=0xddb8 (_2.ptx:7865) @%p9 bra $Lt_4_6658;
GPGPU-Sim PTX:    immediate post dominator      @  PC=0xddc0 (_2.ptx:7866) bra.uni $Lt_4_6146;
GPGPU-Sim PTX: 12 (potential) branch divergence @  PC=0xddc0 (_2.ptx:7866) bra.uni $Lt_4_6146;
GPGPU-Sim PTX:    immediate post dominator      @  PC=0xddd0 (_2.ptx:7871) mul.lo.s32 %r783, %r5, 4;
GPGPU-Sim PTX: ... end of reconvergence points for _Z12sha1_overlapPhiiiiS_
GPGPU-Sim PTX: ... done pre-decoding instructions for '_Z12sha1_overlapPhiiiiS_'.
GPGPU-Sim PTX: allocating global region for "md5_padding" from 0x100 to 0x140 (global memory space)
GPGPU-Sim PTX: allocating global region for "sha1_padding" from 0x140 to 0x180 (global memory space)
GPGPU-Sim PTX: finished parsing EMBEDDED .ptx file _2.ptx
Adding _cuobjdump_4.ptx with cubin handle 2
GPGPU-Sim PTX: extracting embedded .ptx to temporary file "_ptx_7yWwDn"
Running: cat _ptx_7yWwDn | sed 's/.version 1.5/.version 1.4/' | sed 's/, texmode_independent//' | sed 's/\(\.extern \.const\[1\] .b8 \w\+\)\[\]/\1\[1\]/' | sed 's/const\[.\]/const\[0\]/g' > _ptx2_cGunYY
GPGPU-Sim PTX: generating ptxinfo using "$CUDA_INSTALL_PATH/bin/ptxas --gpu-name=sm_20 -v _ptx2_cGunYY --output-file  /dev/null 2> _ptx_7yWwDninfo"
GPGPU-Sim PTX: Kernel '_Z12sha1_overlapPhiiiiS_' : regs=47, lmem=0, smem=16256, cmem=80
GPGPU-Sim PTX: Kernel '_Z4sha1PhiiiS_' : regs=45, lmem=0, smem=16256, cmem=80
GPGPU-Sim PTX: Kernel '_Z11md5_overlapPhiiiiS_' : regs=42, lmem=0, smem=16256, cmem=80
GPGPU-Sim PTX: Kernel '_Z3md5PhiiiS_' : regs=42, lmem=0, smem=16256, cmem=80
GPGPU-Sim PTX: removing ptxinfo using "rm -f _ptx_7yWwDn _ptx2_cGunYY _ptx_7yWwDninfo"
GPGPU-Sim PTX: loading globals with explicit initializers... 
GPGPU-Sim PTX:     initializing 'md5_padding' ...  wrote 64 bytes
GPGPU-Sim PTX:     initializing 'sha1_padding' ...  wrote 64 bytes
GPGPU-Sim PTX: finished loading globals (128 bytes total).
GPGPU-Sim PTX: loading constants with explicit initializers...  done.
GPGPU-Sim PTX: __cudaRegisterFunction _Z4sha1PhiiiS_ : hostFun 0x0x408050, fat_cubin_handle = 2
GPGPU-Sim PTX: __cudaRegisterFunction _Z11md5_overlapPhiiiiS_ : hostFun 0x0x408140, fat_cubin_handle = 2
GPGPU-Sim PTX: __cudaRegisterFunction _Z3md5PhiiiS_ : hostFun 0x0x408200, fat_cubin_handle = 2
GPGPU-Sim PTX: __cudaRegisterVar: hostVar = 0x6ad440; deviceAddress = md5_padding; deviceName = md5_padding
GPGPU-Sim PTX: __cudaRegisterVar: Registering const memory space of 64 bytes
GPGPU-Sim PTX registering global md5_padding hostVar to name mapping
GPGPU-Sim PTX: __cudaRegisterVar: hostVar = 0x6ad480; deviceAddress = sha1_padding; deviceName = sha1_padding
GPGPU-Sim PTX: __cudaRegisterVar: Registering const memory space of 64 bytes
GPGPU-Sim PTX registering global sha1_padding hostVar to name mapping
Shared Memory Enabled
Pinned Memory Enabled
Reduced Hash Size Enabled
Running SHA1 Overlap Test..
SHA1 Overlap Test


== GPU Execution Context ==
Threads       : 128
Blocks        : 384
Total Threads : 49152
Total size    : 196656
Chunk Size    : 52
Padding       : 0


GPGPU-Sim PTX: cudaLaunch for 0x0x407f90 (mode=performance simulation) on stream 0
GPGPU-Sim PTX: pushing kernel '_Z12sha1_overlapPhiiiiS_' to stream 0, gridDim= (384,1,1) blockDim = (128,1,1) 
kernel '_Z12sha1_overlapPhiiiiS_' transfer to GPU hardware scheduler
GPGPU-Sim uArch: Shader 1 bind to kernel 1 '_Z12sha1_overlapPhiiiiS_'
GPGPU-Sim uArch: CTA/core = 2, limited by: regs
GPGPU-Sim uArch: core:  1, cta: 0 initialized @(1,0)
GPGPU-Sim uArch: Shader 2 bind to kernel 1 '_Z12sha1_overlapPhiiiiS_'
GPGPU-Sim uArch: core:  2, cta: 0 initialized @(1,0)
GPGPU-Sim uArch: Shader 3 bind to kernel 1 '_Z12sha1_overlapPhiiiiS_'
GPGPU-Sim uArch: core:  3, cta: 0 initialized @(1,0)
GPGPU-Sim uArch: Shader 4 bind to kernel 1 '_Z12sha1_overlapPhiiiiS_'
GPGPU-Sim uArch: core:  4, cta: 0 initialized @(1,0)
GPGPU-Sim uArch: Shader 5 bind to kernel 1 '_Z12sha1_overlapPhiiiiS_'
GPGPU-Sim uArch: core:  5, cta: 0 initialized @(1,0)
GPGPU-Sim uArch: Shader 6 bind to kernel 1 '_Z12sha1_overlapPhiiiiS_'
GPGPU-Sim uArch: core:  6, cta: 0 initialized @(1,0)
GPGPU-Sim uArch: Shader 7 bind to kernel 1 '_Z12sha1_overlapPhiiiiS_'
GPGPU-Sim uArch: core:  7, cta: 0 initialized @(1,0)
GPGPU-Sim uArch: Shader 8 bind to kernel 1 '_Z12sha1_overlapPhiiiiS_'
GPGPU-Sim uArch: core:  8, cta: 0 initialized @(1,0)
GPGPU-Sim uArch: Shader 9 bind to kernel 1 '_Z12sha1_overlapPhiiiiS_'
GPGPU-Sim uArch: core:  9, cta: 0 initialized @(1,0)
GPGPU-Sim uArch: Shader 10 bind to kernel 1 '_Z12sha1_overlapPhiiiiS_'
GPGPU-Sim uArch: core: 10, cta: 0 initialized @(1,0)
GPGPU-Sim uArch: Shader 11 bind to kernel 1 '_Z12sha1_overlapPhiiiiS_'
GPGPU-Sim uArch: core: 11, cta: 0 initialized @(1,0)
GPGPU-Sim uArch: Shader 12 bind to kernel 1 '_Z12sha1_overlapPhiiiiS_'
GPGPU-Sim uArch: core: 12, cta: 0 initialized @(1,0)
GPGPU-Sim uArch: Shader 13 bind to kernel 1 '_Z12sha1_overlapPhiiiiS_'
GPGPU-Sim uArch: core: 13, cta: 0 initialized @(1,0)
GPGPU-Sim uArch: Shader 14 bind to kernel 1 '_Z12sha1_overlapPhiiiiS_'
GPGPU-Sim uArch: core: 14, cta: 0 initialized @(1,0)
GPGPU-Sim uArch: Shader 0 bind to kernel 1 '_Z12sha1_overlapPhiiiiS_'
GPGPU-Sim uArch: core:  0, cta: 0 initialized @(1,0)
GPGPU-Sim uArch: core:  1, cta: 1 initialized @(2,0)
GPGPU-Sim uArch: core:  2, cta: 1 initialized @(2,0)
GPGPU-Sim uArch: core:  3, cta: 1 initialized @(2,0)
GPGPU-Sim uArch: core:  4, cta: 1 initialized @(2,0)
GPGPU-Sim uArch: core:  5, cta: 1 initialized @(2,0)
GPGPU-Sim uArch: core:  6, cta: 1 initialized @(2,0)
GPGPU-Sim uArch: core:  7, cta: 1 initialized @(2,0)
GPGPU-Sim uArch: core:  8, cta: 1 initialized @(2,0)
GPGPU-Sim uArch: core:  9, cta: 1 initialized @(2,0)
GPGPU-Sim uArch: core: 10, cta: 1 initialized @(2,0)
GPGPU-Sim uArch: core: 11, cta: 1 initialized @(2,0)
GPGPU-Sim uArch: core: 12, cta: 1 initialized @(2,0)
GPGPU-Sim uArch: core: 13, cta: 1 initialized @(2,0)
GPGPU-Sim uArch: core: 14, cta: 1 initialized @(2,0)
GPGPU-Sim uArch: core:  0, cta: 1 initialized @(2,0)
GPGPU-Sim uArch: cycles simulated: 500  inst.: 19200 (ipc=38.4) sim_rate=3840 (inst/sec) elapsed = 0:0:00:05 / Wed May 13 00:35:50 2015
GPGPU-Sim uArch: cycles simulated: 1000  inst.: 90752 (ipc=90.8) sim_rate=12964 (inst/sec) elapsed = 0:0:00:07 / Wed May 13 00:35:52 2015
GPGPU-Sim PTX: 100000 instructions simulated : ctaid=(24,0,0) tid=(31,0,0)
GPGPU-Sim uArch: cycles simulated: 1500  inst.: 165120 (ipc=110.1) sim_rate=18346 (inst/sec) elapsed = 0:0:00:09 / Wed May 13 00:35:54 2015
GPGPU-Sim PTX: 200000 instructions simulated : ctaid=(9,0,0) tid=(63,0,0)
GPGPU-Sim uArch: cycles simulated: 2000  inst.: 283264 (ipc=141.6) sim_rate=23605 (inst/sec) elapsed = 0:0:00:12 / Wed May 13 00:35:57 2015
GPGPU-Sim PTX: 300000 instructions simulated : ctaid=(2,0,0) tid=(95,0,0)
GPGPU-Sim uArch: cycles simulated: 2500  inst.: 322560 (ipc=129.0) sim_rate=24812 (inst/sec) elapsed = 0:0:00:13 / Wed May 13 00:35:58 2015
GPGPU-Sim PTX: 400000 instructions simulated : ctaid=(23,0,0) tid=(127,0,0)
GPGPU-Sim uArch: cycles simulated: 3000  inst.: 391680 (ipc=130.6) sim_rate=26112 (inst/sec) elapsed = 0:0:00:15 / Wed May 13 00:36:00 2015
GPGPU-Sim PTX: 500000 instructions simulated : ctaid=(6,0,0) tid=(31,0,0)
GPGPU-Sim uArch: cycles simulated: 3500  inst.: 504448 (ipc=144.1) sim_rate=28024 (inst/sec) elapsed = 0:0:00:18 / Wed May 13 00:36:03 2015
GPGPU-Sim PTX: 600000 instructions simulated : ctaid=(7,0,0) tid=(63,0,0)
GPGPU-Sim PTX: 700000 instructions simulated : ctaid=(29,0,0) tid=(95,0,0)
GPGPU-Sim PTX: 800000 instructions simulated : ctaid=(11,0,0) tid=(127,0,0)
GPGPU-Sim uArch: cycles simulated: 4000  inst.: 823808 (ipc=206.0) sim_rate=32952 (inst/sec) elapsed = 0:0:00:25 / Wed May 13 00:36:10 2015
GPGPU-Sim PTX: 900000 instructions simulated : ctaid=(3,0,0) tid=(31,0,0)
GPGPU-Sim uArch: cycles simulated: 4500  inst.: 979072 (ipc=217.6) sim_rate=33761 (inst/sec) elapsed = 0:0:00:29 / Wed May 13 00:36:14 2015
GPGPU-Sim PTX: 1000000 instructions simulated : ctaid=(2,0,0) tid=(63,0,0)
GPGPU-Sim uArch: cycles simulated: 5000  inst.: 987264 (ipc=197.5) sim_rate=32908 (inst/sec) elapsed = 0:0:00:30 / Wed May 13 00:36:15 2015
GPGPU-Sim PTX: 1100000 instructions simulated : ctaid=(26,0,0) tid=(95,0,0)
GPGPU-Sim uArch: cycles simulated: 5500  inst.: 1086720 (ipc=197.6) sim_rate=32930 (inst/sec) elapsed = 0:0:00:33 / Wed May 13 00:36:18 2015
GPGPU-Sim uArch: cycles simulated: 6000  inst.: 1148160 (ipc=191.4) sim_rate=33769 (inst/sec) elapsed = 0:0:00:34 / Wed May 13 00:36:19 2015
GPGPU-Sim PTX: 1200000 instructions simulated : ctaid=(9,0,0) tid=(127,0,0)
GPGPU-Sim uArch: cycles simulated: 6500  inst.: 1241088 (ipc=190.9) sim_rate=33542 (inst/sec) elapsed = 0:0:00:37 / Wed May 13 00:36:22 2015
GPGPU-Sim PTX: 1300000 instructions simulated : ctaid=(15,0,0) tid=(31,0,0)
GPGPU-Sim uArch: cycles simulated: 7000  inst.: 1332480 (ipc=190.4) sim_rate=34166 (inst/sec) elapsed = 0:0:00:39 / Wed May 13 00:36:24 2015
GPGPU-Sim PTX: 1400000 instructions simulated : ctaid=(23,0,0) tid=(63,0,0)
GPGPU-Sim uArch: cycles simulated: 7500  inst.: 1393920 (ipc=185.9) sim_rate=33998 (inst/sec) elapsed = 0:0:00:41 / Wed May 13 00:36:26 2015
GPGPU-Sim PTX: 1500000 instructions simulated : ctaid=(26,0,0) tid=(95,0,0)
GPGPU-Sim uArch: cycles simulated: 8000  inst.: 1491712 (ipc=186.5) sim_rate=34690 (inst/sec) elapsed = 0:0:00:43 / Wed May 13 00:36:28 2015
GPGPU-Sim uArch: cycles simulated: 8500  inst.: 1578240 (ipc=185.7) sim_rate=35072 (inst/sec) elapsed = 0:0:00:45 / Wed May 13 00:36:30 2015
GPGPU-Sim PTX: 1600000 instructions simulated : ctaid=(3,0,0) tid=(127,0,0)
GPGPU-Sim uArch: cycles simulated: 9000  inst.: 1640832 (ipc=182.3) sim_rate=34911 (inst/sec) elapsed = 0:0:00:47 / Wed May 13 00:36:32 2015
GPGPU-Sim PTX: 1700000 instructions simulated : ctaid=(26,0,0) tid=(31,0,0)
GPGPU-Sim uArch: cycles simulated: 9500  inst.: 1762560 (ipc=185.5) sim_rate=35251 (inst/sec) elapsed = 0:0:00:50 / Wed May 13 00:36:35 2015
GPGPU-Sim PTX: 1800000 instructions simulated : ctaid=(15,0,0) tid=(63,0,0)
GPGPU-Sim uArch: cycles simulated: 10000  inst.: 1824000 (ipc=182.4) sim_rate=35764 (inst/sec) elapsed = 0:0:00:51 / Wed May 13 00:36:36 2015
GPGPU-Sim PTX: 1900000 instructions simulated : ctaid=(28,0,0) tid=(95,0,0)
GPGPU-Sim uArch: cycles simulated: 10500  inst.: 1942400 (ipc=185.0) sim_rate=35970 (inst/sec) elapsed = 0:0:00:54 / Wed May 13 00:36:39 2015
GPGPU-Sim PTX: 2000000 instructions simulated : ctaid=(22,0,0) tid=(127,0,0)
GPGPU-Sim uArch: cycles simulated: 11000  inst.: 2008320 (ipc=182.6) sim_rate=35862 (inst/sec) elapsed = 0:0:00:56 / Wed May 13 00:36:41 2015
GPGPU-Sim PTX: 2100000 instructions simulated : ctaid=(18,0,0) tid=(31,0,0)
GPGPU-Sim uArch: cycles simulated: 11500  inst.: 2107520 (ipc=183.3) sim_rate=36336 (inst/sec) elapsed = 0:0:00:58 / Wed May 13 00:36:43 2015
GPGPU-Sim PTX: 2200000 instructions simulated : ctaid=(11,0,0) tid=(63,0,0)
GPGPU-Sim uArch: cycles simulated: 12000  inst.: 2192640 (ipc=182.7) sim_rate=35944 (inst/sec) elapsed = 0:0:01:01 / Wed May 13 00:36:46 2015
GPGPU-Sim uArch: cycles simulated: 12500  inst.: 2267520 (ipc=181.4) sim_rate=35992 (inst/sec) elapsed = 0:0:01:03 / Wed May 13 00:36:48 2015
GPGPU-Sim PTX: 2300000 instructions simulated : ctaid=(4,0,0) tid=(95,0,0)
GPGPU-Sim uArch: cycles simulated: 13000  inst.: 2376960 (ipc=182.8) sim_rate=36568 (inst/sec) elapsed = 0:0:01:05 / Wed May 13 00:36:50 2015
GPGPU-Sim PTX: 2400000 instructions simulated : ctaid=(6,0,0) tid=(127,0,0)
GPGPU-Sim uArch: cycles simulated: 13500  inst.: 2440832 (ipc=180.8) sim_rate=36430 (inst/sec) elapsed = 0:0:01:07 / Wed May 13 00:36:52 2015
GPGPU-Sim PTX: 2500000 instructions simulated : ctaid=(11,0,0) tid=(31,0,0)
GPGPU-Sim uArch: cycles simulated: 14000  inst.: 2561280 (ipc=182.9) sim_rate=37120 (inst/sec) elapsed = 0:0:01:09 / Wed May 13 00:36:54 2015
GPGPU-Sim PTX: 2600000 instructions simulated : ctaid=(16,0,0) tid=(63,0,0)
GPGPU-Sim uArch: cycles simulated: 14500  inst.: 2622720 (ipc=180.9) sim_rate=36939 (inst/sec) elapsed = 0:0:01:11 / Wed May 13 00:36:56 2015
GPGPU-Sim PTX: 2700000 instructions simulated : ctaid=(3,0,0) tid=(95,0,0)
GPGPU-Sim uArch: cycles simulated: 15000  inst.: 2734976 (ipc=182.3) sim_rate=37465 (inst/sec) elapsed = 0:0:01:13 / Wed May 13 00:36:58 2015
GPGPU-Sim PTX: 2800000 instructions simulated : ctaid=(18,0,0) tid=(127,0,0)
GPGPU-Sim uArch: cycles simulated: 15500  inst.: 2807040 (ipc=181.1) sim_rate=37427 (inst/sec) elapsed = 0:0:01:15 / Wed May 13 00:37:00 2015
GPGPU-Sim PTX: 2900000 instructions simulated : ctaid=(3,0,0) tid=(31,0,0)
GPGPU-Sim uArch: cycles simulated: 16000  inst.: 2888448 (ipc=180.5) sim_rate=37512 (inst/sec) elapsed = 0:0:01:17 / Wed May 13 00:37:02 2015
GPGPU-Sim PTX: 3000000 instructions simulated : ctaid=(26,0,0) tid=(63,0,0)
GPGPU-Sim uArch: cycles simulated: 16500  inst.: 2991360 (ipc=181.3) sim_rate=37392 (inst/sec) elapsed = 0:0:01:20 / Wed May 13 00:37:05 2015
GPGPU-Sim uArch: cycles simulated: 17000  inst.: 3054592 (ipc=179.7) sim_rate=37711 (inst/sec) elapsed = 0:0:01:21 / Wed May 13 00:37:06 2015
GPGPU-Sim PTX: 3100000 instructions simulated : ctaid=(20,0,0) tid=(95,0,0)
GPGPU-Sim uArch: cycles simulated: 17500  inst.: 3175424 (ipc=181.5) sim_rate=37802 (inst/sec) elapsed = 0:0:01:24 / Wed May 13 00:37:09 2015
GPGPU-Sim PTX: 3200000 instructions simulated : ctaid=(19,0,0) tid=(127,0,0)
GPGPU-Sim uArch: cycles simulated: 18000  inst.: 3237120 (ipc=179.8) sim_rate=37640 (inst/sec) elapsed = 0:0:01:26 / Wed May 13 00:37:11 2015
GPGPU-Sim PTX: 3300000 instructions simulated : ctaid=(9,0,0) tid=(31,0,0)
GPGPU-Sim uArch: cycles simulated: 18500  inst.: 3353344 (ipc=181.3) sim_rate=38106 (inst/sec) elapsed = 0:0:01:28 / Wed May 13 00:37:13 2015
GPGPU-Sim PTX: 3400000 instructions simulated : ctaid=(5,0,0) tid=(63,0,0)
GPGPU-Sim uArch: cycles simulated: 19000  inst.: 3421440 (ipc=180.1) sim_rate=38016 (inst/sec) elapsed = 0:0:01:30 / Wed May 13 00:37:15 2015
GPGPU-Sim PTX: 3500000 instructions simulated : ctaid=(14,0,0) tid=(95,0,0)
GPGPU-Sim uArch: cycles simulated: 19500  inst.: 3525376 (ipc=180.8) sim_rate=37907 (inst/sec) elapsed = 0:0:01:33 / Wed May 13 00:37:18 2015
GPGPU-Sim PTX: 3600000 instructions simulated : ctaid=(12,0,0) tid=(127,0,0)
GPGPU-Sim uArch: cycles simulated: 20000  inst.: 3605760 (ipc=180.3) sim_rate=38359 (inst/sec) elapsed = 0:0:01:34 / Wed May 13 00:37:19 2015
GPGPU-Sim PTX: 3700000 instructions simulated : ctaid=(0,0,0) tid=(31,0,0)
GPGPU-Sim uArch: cycles simulated: 20500  inst.: 3686912 (ipc=179.8) sim_rate=38405 (inst/sec) elapsed = 0:0:01:36 / Wed May 13 00:37:21 2015
GPGPU-Sim PTX: 3800000 instructions simulated : ctaid=(10,0,0) tid=(63,0,0)
GPGPU-Sim uArch: cycles simulated: 21000  inst.: 3790080 (ipc=180.5) sim_rate=38283 (inst/sec) elapsed = 0:0:01:39 / Wed May 13 00:37:24 2015
GPGPU-Sim uArch: cycles simulated: 21500  inst.: 3861120 (ipc=179.6) sim_rate=38228 (inst/sec) elapsed = 0:0:01:41 / Wed May 13 00:37:26 2015
GPGPU-Sim PTX: 3900000 instructions simulated : ctaid=(8,0,0) tid=(95,0,0)
GPGPU-Sim uArch: cycles simulated: 22000  inst.: 3974400 (ipc=180.7) sim_rate=38586 (inst/sec) elapsed = 0:0:01:43 / Wed May 13 00:37:28 2015
GPGPU-Sim PTX: 4000000 instructions simulated : ctaid=(29,0,0) tid=(127,0,0)
GPGPU-Sim uArch: cycles simulated: 22500  inst.: 4039680 (ipc=179.5) sim_rate=38473 (inst/sec) elapsed = 0:0:01:45 / Wed May 13 00:37:30 2015
GPGPU-Sim PTX: 4100000 instructions simulated : ctaid=(27,0,0) tid=(31,0,0)
GPGPU-Sim uArch: cycles simulated: 23000  inst.: 4158720 (ipc=180.8) sim_rate=38506 (inst/sec) elapsed = 0:0:01:48 / Wed May 13 00:37:33 2015
GPGPU-Sim PTX: 4200000 instructions simulated : ctaid=(27,0,0) tid=(63,0,0)
GPGPU-Sim uArch: cycles simulated: 23500  inst.: 4220160 (ipc=179.6) sim_rate=38717 (inst/sec) elapsed = 0:0:01:49 / Wed May 13 00:37:34 2015
GPGPU-Sim PTX: 4300000 instructions simulated : ctaid=(0,0,0) tid=(95,0,0)
GPGPU-Sim uArch: cycles simulated: 24000  inst.: 4340480 (ipc=180.9) sim_rate=38754 (inst/sec) elapsed = 0:0:01:52 / Wed May 13 00:37:37 2015
GPGPU-Sim PTX: 4400000 instructions simulated : ctaid=(28,0,0) tid=(127,0,0)
GPGPU-Sim uArch: cycles simulated: 24500  inst.: 4404480 (ipc=179.8) sim_rate=38635 (inst/sec) elapsed = 0:0:01:54 / Wed May 13 00:37:39 2015
GPGPU-Sim PTX: 4500000 instructions simulated : ctaid=(29,0,0) tid=(31,0,0)
GPGPU-Sim uArch: cycles simulated: 25000  inst.: 4509568 (ipc=180.4) sim_rate=38543 (inst/sec) elapsed = 0:0:01:57 / Wed May 13 00:37:42 2015
GPGPU-Sim PTX: 4600000 instructions simulated : ctaid=(28,0,0) tid=(63,0,0)
GPGPU-Sim uArch: cycles simulated: 25500  inst.: 4588800 (ipc=180.0) sim_rate=38561 (inst/sec) elapsed = 0:0:01:59 / Wed May 13 00:37:44 2015
GPGPU-Sim uArch: cycles simulated: 26000  inst.: 4669568 (ipc=179.6) sim_rate=38591 (inst/sec) elapsed = 0:0:02:01 / Wed May 13 00:37:46 2015
GPGPU-Sim PTX: 4700000 instructions simulated : ctaid=(20,0,0) tid=(95,0,0)
GPGPU-Sim uArch: cycles simulated: 26500  inst.: 4773120 (ipc=180.1) sim_rate=38805 (inst/sec) elapsed = 0:0:02:03 / Wed May 13 00:37:48 2015
GPGPU-Sim PTX: 4800000 instructions simulated : ctaid=(18,0,0) tid=(127,0,0)
GPGPU-Sim uArch: cycles simulated: 27000  inst.: 4839552 (ipc=179.2) sim_rate=38716 (inst/sec) elapsed = 0:0:02:05 / Wed May 13 00:37:50 2015
GPGPU-Sim PTX: 4900000 instructions simulated : ctaid=(21,0,0) tid=(31,0,0)
GPGPU-Sim uArch: cycles simulated: 27500  inst.: 4957440 (ipc=180.3) sim_rate=38730 (inst/sec) elapsed = 0:0:02:08 / Wed May 13 00:37:53 2015
GPGPU-Sim PTX: 5000000 instructions simulated : ctaid=(4,0,0) tid=(63,0,0)
GPGPU-Sim uArch: cycles simulated: 28000  inst.: 5018880 (ipc=179.2) sim_rate=38906 (inst/sec) elapsed = 0:0:02:09 / Wed May 13 00:37:54 2015
GPGPU-Sim PTX: 5100000 instructions simulated : ctaid=(14,0,0) tid=(95,0,0)
GPGPU-Sim uArch: cycles simulated: 28500  inst.: 5139328 (ipc=180.3) sim_rate=38934 (inst/sec) elapsed = 0:0:02:12 / Wed May 13 00:37:57 2015
GPGPU-Sim PTX: 5200000 instructions simulated : ctaid=(12,0,0) tid=(127,0,0)
GPGPU-Sim uArch: cycles simulated: 29000  inst.: 5203200 (ipc=179.4) sim_rate=38829 (inst/sec) elapsed = 0:0:02:14 / Wed May 13 00:37:59 2015
GPGPU-Sim PTX: 5300000 instructions simulated : ctaid=(16,0,0) tid=(31,0,0)
GPGPU-Sim uArch: cycles simulated: 29500  inst.: 5309568 (ipc=180.0) sim_rate=39040 (inst/sec) elapsed = 0:0:02:16 / Wed May 13 00:38:01 2015
GPGPU-Sim PTX: 5400000 instructions simulated : ctaid=(28,0,0) tid=(63,0,0)
GPGPU-Sim uArch: cycles simulated: 30000  inst.: 5387520 (ipc=179.6) sim_rate=39040 (inst/sec) elapsed = 0:0:02:18 / Wed May 13 00:38:03 2015
GPGPU-Sim uArch: cycles simulated: 30500  inst.: 5479424 (ipc=179.7) sim_rate=38861 (inst/sec) elapsed = 0:0:02:21 / Wed May 13 00:38:06 2015
GPGPU-Sim PTX: 5500000 instructions simulated : ctaid=(9,0,0) tid=(95,0,0)
GPGPU-Sim uArch: cycles simulated: 31000  inst.: 5571840 (ipc=179.7) sim_rate=38963 (inst/sec) elapsed = 0:0:02:23 / Wed May 13 00:38:08 2015
GPGPU-Sim PTX: 5600000 instructions simulated : ctaid=(0,0,0) tid=(127,0,0)
GPGPU-Sim uArch: cycles simulated: 31500  inst.: 5641344 (ipc=179.1) sim_rate=38905 (inst/sec) elapsed = 0:0:02:25 / Wed May 13 00:38:10 2015
GPGPU-Sim PTX: 5700000 instructions simulated : ctaid=(12,0,0) tid=(31,0,0)
GPGPU-Sim uArch: cycles simulated: 32000  inst.: 5756160 (ipc=179.9) sim_rate=39157 (inst/sec) elapsed = 0:0:02:27 / Wed May 13 00:38:12 2015
GPGPU-Sim PTX: 5800000 instructions simulated : ctaid=(23,0,0) tid=(63,0,0)
GPGPU-Sim uArch: cycles simulated: 32500  inst.: 5819136 (ipc=179.1) sim_rate=39054 (inst/sec) elapsed = 0:0:02:29 / Wed May 13 00:38:14 2015
GPGPU-Sim PTX: 5900000 instructions simulated : ctaid=(14,0,0) tid=(95,0,0)
GPGPU-Sim uArch: cycles simulated: 33000  inst.: 5940224 (ipc=180.0) sim_rate=39080 (inst/sec) elapsed = 0:0:02:32 / Wed May 13 00:38:17 2015
GPGPU-Sim PTX: 6000000 instructions simulated : ctaid=(24,0,0) tid=(127,0,0)
GPGPU-Sim uArch: cycles simulated: 33500  inst.: 6001920 (ipc=179.2) sim_rate=39228 (inst/sec) elapsed = 0:0:02:33 / Wed May 13 00:38:18 2015
GPGPU-Sim PTX: 6100000 instructions simulated : ctaid=(1,0,0) tid=(31,0,0)
GPGPU-Sim uArch: cycles simulated: 34000  inst.: 6115968 (ipc=179.9) sim_rate=39204 (inst/sec) elapsed = 0:0:02:36 / Wed May 13 00:38:21 2015
GPGPU-Sim PTX: 6200000 instructions simulated : ctaid=(27,0,0) tid=(63,0,0)
GPGPU-Sim uArch: cycles simulated: 34500  inst.: 6186240 (ipc=179.3) sim_rate=39153 (inst/sec) elapsed = 0:0:02:38 / Wed May 13 00:38:23 2015
GPGPU-Sim uArch: cycles simulated: 35000  inst.: 6271232 (ipc=179.2) sim_rate=39195 (inst/sec) elapsed = 0:0:02:40 / Wed May 13 00:38:25 2015
GPGPU-Sim PTX: 6300000 instructions simulated : ctaid=(8,0,0) tid=(95,0,0)
GPGPU-Sim uArch: cycles simulated: 35500  inst.: 6370560 (ipc=179.5) sim_rate=39324 (inst/sec) elapsed = 0:0:02:42 / Wed May 13 00:38:27 2015
GPGPU-Sim PTX: 6400000 instructions simulated : ctaid=(7,0,0) tid=(127,0,0)
GPGPU-Sim uArch: cycles simulated: 36000  inst.: 6434560 (ipc=178.7) sim_rate=39235 (inst/sec) elapsed = 0:0:02:44 / Wed May 13 00:38:29 2015
GPGPU-Sim PTX: 6500000 instructions simulated : ctaid=(9,0,0) tid=(31,0,0)
GPGPU-Sim uArch: cycles simulated: 36500  inst.: 6553984 (ipc=179.6) sim_rate=39245 (inst/sec) elapsed = 0:0:02:47 / Wed May 13 00:38:32 2015
GPGPU-Sim PTX: 6600000 instructions simulated : ctaid=(18,0,0) tid=(63,0,0)
GPGPU-Sim uArch: cycles simulated: 37000  inst.: 6616320 (ipc=178.8) sim_rate=39149 (inst/sec) elapsed = 0:0:02:49 / Wed May 13 00:38:34 2015
GPGPU-Sim PTX: 6700000 instructions simulated : ctaid=(29,0,0) tid=(95,0,0)
GPGPU-Sim uArch: cycles simulated: 37500  inst.: 6730368 (ipc=179.5) sim_rate=39358 (inst/sec) elapsed = 0:0:02:51 / Wed May 13 00:38:36 2015
GPGPU-Sim PTX: 6800000 instructions simulated : ctaid=(23,0,0) tid=(127,0,0)
GPGPU-Sim uArch: cycles simulated: 38000  inst.: 6800640 (ipc=179.0) sim_rate=39310 (inst/sec) elapsed = 0:0:02:53 / Wed May 13 00:38:38 2015
GPGPU-Sim PTX: 6900000 instructions simulated : ctaid=(15,0,0) tid=(31,0,0)
GPGPU-Sim uArch: cycles simulated: 38500  inst.: 6884352 (ipc=178.8) sim_rate=39339 (inst/sec) elapsed = 0:0:02:55 / Wed May 13 00:38:40 2015
GPGPU-Sim PTX: 7000000 instructions simulated : ctaid=(13,0,0) tid=(63,0,0)
GPGPU-Sim uArch: cycles simulated: 39000  inst.: 6984960 (ipc=179.1) sim_rate=39241 (inst/sec) elapsed = 0:0:02:58 / Wed May 13 00:38:43 2015
GPGPU-Sim uArch: cycles simulated: 39500  inst.: 7049216 (ipc=178.5) sim_rate=39162 (inst/sec) elapsed = 0:0:03:00 / Wed May 13 00:38:45 2015
GPGPU-Sim PTX: 7100000 instructions simulated : ctaid=(23,0,0) tid=(95,0,0)
GPGPU-Sim uArch: cycles simulated: 40000  inst.: 7169152 (ipc=179.2) sim_rate=39390 (inst/sec) elapsed = 0:0:03:02 / Wed May 13 00:38:47 2015
GPGPU-Sim PTX: 7200000 instructions simulated : ctaid=(21,0,0) tid=(127,0,0)
GPGPU-Sim uArch: cycles simulated: 40500  inst.: 7230720 (ipc=178.5) sim_rate=39297 (inst/sec) elapsed = 0:0:03:04 / Wed May 13 00:38:49 2015
GPGPU-Sim PTX: 7300000 instructions simulated : ctaid=(27,0,0) tid=(31,0,0)
GPGPU-Sim uArch: cycles simulated: 41000  inst.: 7345536 (ipc=179.2) sim_rate=39280 (inst/sec) elapsed = 0:0:03:07 / Wed May 13 00:38:52 2015
GPGPU-Sim PTX: 7400000 instructions simulated : ctaid=(1,0,0) tid=(63,0,0)
GPGPU-Sim uArch: cycles simulated: 41500  inst.: 7415040 (ipc=178.7) sim_rate=39233 (inst/sec) elapsed = 0:0:03:09 / Wed May 13 00:38:54 2015
GPGPU-Sim PTX: 7500000 instructions simulated : ctaid=(18,0,0) tid=(95,0,0)
GPGPU-Sim uArch: cycles simulated: 42000  inst.: 7497472 (ipc=178.5) sim_rate=39049 (inst/sec) elapsed = 0:0:03:12 / Wed May 13 00:38:57 2015
GPGPU-Sim PTX: 7600000 instructions simulated : ctaid=(21,0,0) tid=(127,0,0)
GPGPU-Sim uArch: cycles simulated: 42500  inst.: 7599360 (ipc=178.8) sim_rate=39171 (inst/sec) elapsed = 0:0:03:14 / Wed May 13 00:38:59 2015
GPGPU-Sim uArch: cycles simulated: 43000  inst.: 7665920 (ipc=178.3) sim_rate=39111 (inst/sec) elapsed = 0:0:03:16 / Wed May 13 00:39:01 2015
GPGPU-Sim PTX: 7700000 instructions simulated : ctaid=(10,0,0) tid=(31,0,0)
GPGPU-Sim uArch: cycles simulated: 43500  inst.: 7783680 (ipc=178.9) sim_rate=39113 (inst/sec) elapsed = 0:0:03:19 / Wed May 13 00:39:04 2015
GPGPU-Sim PTX: 7800000 instructions simulated : ctaid=(0,0,0) tid=(63,0,0)
GPGPU-Sim uArch: cycles simulated: 44000  inst.: 7845120 (ipc=178.3) sim_rate=39225 (inst/sec) elapsed = 0:0:03:20 / Wed May 13 00:39:05 2015
GPGPU-Sim PTX: 7900000 instructions simulated : ctaid=(21,0,0) tid=(95,0,0)
GPGPU-Sim uArch: cycles simulated: 44500  inst.: 7967360 (ipc=179.0) sim_rate=39248 (inst/sec) elapsed = 0:0:03:23 / Wed May 13 00:39:08 2015
GPGPU-Sim PTX: 8000000 instructions simulated : ctaid=(18,0,0) tid=(127,0,0)
GPGPU-Sim uArch: cycles simulated: 45000  inst.: 8029440 (ipc=178.4) sim_rate=39168 (inst/sec) elapsed = 0:0:03:25 / Wed May 13 00:39:10 2015
GPGPU-Sim PTX: 8100000 instructions simulated : ctaid=(28,0,0) tid=(31,0,0)
GPGPU-Sim uArch: cycles simulated: 45500  inst.: 8135168 (ipc=178.8) sim_rate=39300 (inst/sec) elapsed = 0:0:03:27 / Wed May 13 00:39:12 2015
GPGPU-Sim PTX: 8200000 instructions simulated : ctaid=(27,0,0) tid=(63,0,0)
GPGPU-Sim uArch: cycles simulated: 46000  inst.: 8213760 (ipc=178.6) sim_rate=39300 (inst/sec) elapsed = 0:0:03:29 / Wed May 13 00:39:14 2015
GPGPU-Sim PTX: 8300000 instructions simulated : ctaid=(5,0,0) tid=(95,0,0)
GPGPU-Sim uArch: cycles simulated: 46500  inst.: 8296576 (ipc=178.4) sim_rate=39134 (inst/sec) elapsed = 0:0:03:32 / Wed May 13 00:39:17 2015
GPGPU-Sim PTX: 8400000 instructions simulated : ctaid=(21,0,0) tid=(127,0,0)
GPGPU-Sim uArch: cycles simulated: 47000  inst.: 8398080 (ipc=178.7) sim_rate=39243 (inst/sec) elapsed = 0:0:03:34 / Wed May 13 00:39:19 2015
GPGPU-Sim uArch: cycles simulated: 47500  inst.: 8461312 (ipc=178.1) sim_rate=39172 (inst/sec) elapsed = 0:0:03:36 / Wed May 13 00:39:21 2015
GPGPU-Sim PTX: 8500000 instructions simulated : ctaid=(19,0,0) tid=(31,0,0)
GPGPU-Sim uArch: cycles simulated: 48000  inst.: 8581888 (ipc=178.8) sim_rate=39186 (inst/sec) elapsed = 0:0:03:39 / Wed May 13 00:39:24 2015
GPGPU-Sim PTX: 8600000 instructions simulated : ctaid=(14,0,0) tid=(63,0,0)
GPGPU-Sim uArch: cycles simulated: 48500  inst.: 8643840 (ipc=178.2) sim_rate=39290 (inst/sec) elapsed = 0:0:03:40 / Wed May 13 00:39:25 2015
GPGPU-Sim PTX: 8700000 instructions simulated : ctaid=(18,0,0) tid=(95,0,0)
GPGPU-Sim uArch: cycles simulated: 49000  inst.: 8763264 (ipc=178.8) sim_rate=39297 (inst/sec) elapsed = 0:0:03:43 / Wed May 13 00:39:28 2015
GPGPU-Sim PTX: 8800000 instructions simulated : ctaid=(20,0,0) tid=(127,0,0)
GPGPU-Sim uArch: cycles simulated: 49500  inst.: 8828160 (ipc=178.3) sim_rate=39236 (inst/sec) elapsed = 0:0:03:45 / Wed May 13 00:39:30 2015
GPGPU-Sim PTX: 8900000 instructions simulated : ctaid=(24,0,0) tid=(31,0,0)
GPGPU-Sim uArch: cycles simulated: 50000  inst.: 8934912 (ipc=178.7) sim_rate=39188 (inst/sec) elapsed = 0:0:03:48 / Wed May 13 00:39:33 2015
GPGPU-Sim PTX: 9000000 instructions simulated : ctaid=(20,0,0) tid=(63,0,0)
GPGPU-Sim uArch: cycles simulated: 50500  inst.: 9012480 (ipc=178.5) sim_rate=39184 (inst/sec) elapsed = 0:0:03:50 / Wed May 13 00:39:35 2015
GPGPU-Sim PTX: 9100000 instructions simulated : ctaid=(20,0,0) tid=(95,0,0)
GPGPU-Sim uArch: cycles simulated: 51000  inst.: 9097472 (ipc=178.4) sim_rate=39213 (inst/sec) elapsed = 0:0:03:52 / Wed May 13 00:39:37 2015
GPGPU-Sim PTX: 9200000 instructions simulated : ctaid=(27,0,0) tid=(127,0,0)
GPGPU-Sim uArch: cycles simulated: 51500  inst.: 9196800 (ipc=178.6) sim_rate=39302 (inst/sec) elapsed = 0:0:03:54 / Wed May 13 00:39:39 2015
GPGPU-Sim uArch: cycles simulated: 52000  inst.: 9267584 (ipc=178.2) sim_rate=39269 (inst/sec) elapsed = 0:0:03:56 / Wed May 13 00:39:41 2015
GPGPU-Sim PTX: 9300000 instructions simulated : ctaid=(5,0,0) tid=(31,0,0)
GPGPU-Sim uArch: cycles simulated: 52500  inst.: 9381120 (ipc=178.7) sim_rate=39251 (inst/sec) elapsed = 0:0:03:59 / Wed May 13 00:39:44 2015
GPGPU-Sim PTX: 9400000 instructions simulated : ctaid=(2,0,0) tid=(63,0,0)
GPGPU-Sim uArch: cycles simulated: 53000  inst.: 9443072 (ipc=178.2) sim_rate=39182 (inst/sec) elapsed = 0:0:04:01 / Wed May 13 00:39:46 2015
GPGPU-Sim PTX: 9500000 instructions simulated : ctaid=(26,0,0) tid=(95,0,0)
GPGPU-Sim uArch: cycles simulated: 53500  inst.: 9564800 (ipc=178.8) sim_rate=39200 (inst/sec) elapsed = 0:0:04:04 / Wed May 13 00:39:49 2015
GPGPU-Sim PTX: 9600000 instructions simulated : ctaid=(16,0,0) tid=(127,0,0)
GPGPU-Sim uArch: cycles simulated: 54000  inst.: 9626880 (ipc=178.3) sim_rate=39293 (inst/sec) elapsed = 0:0:04:05 / Wed May 13 00:39:50 2015
GPGPU-Sim PTX: 9700000 instructions simulated : ctaid=(12,0,0) tid=(31,0,0)
GPGPU-Sim uArch: cycles simulated: 54500  inst.: 9735168 (ipc=178.6) sim_rate=39254 (inst/sec) elapsed = 0:0:04:08 / Wed May 13 00:39:53 2015
GPGPU-Sim PTX: 9800000 instructions simulated : ctaid=(7,0,0) tid=(63,0,0)
GPGPU-Sim uArch: cycles simulated: 55000  inst.: 9799552 (ipc=178.2) sim_rate=39198 (inst/sec) elapsed = 0:0:04:10 / Wed May 13 00:39:55 2015
GPGPU-Sim uArch: cycles simulated: 55500  inst.: 9819520 (ipc=176.9) sim_rate=39121 (inst/sec) elapsed = 0:0:04:11 / Wed May 13 00:39:56 2015
GPGPU-Sim uArch: Shader 4 finished CTA #1 (55629,0), 1 CTAs running
GPGPU-Sim uArch: core:  4, cta: 1 initialized @(55630,0)
GPGPU-Sim uArch: Shader 1 finished CTA #0 (55651,0), 1 CTAs running
GPGPU-Sim uArch: core:  1, cta: 0 initialized @(55652,0)
GPGPU-Sim uArch: Shader 7 finished CTA #0 (55713,0), 1 CTAs running
GPGPU-Sim uArch: core:  7, cta: 0 initialized @(55714,0)
GPGPU-Sim uArch: Shader 10 finished CTA #0 (55723,0), 1 CTAs running
GPGPU-Sim uArch: core: 10, cta: 0 initialized @(55724,0)
GPGPU-Sim uArch: Shader 0 finished CTA #0 (55734,0), 1 CTAs running
GPGPU-Sim uArch: core:  0, cta: 0 initialized @(55735,0)
GPGPU-Sim uArch: Shader 10 finished CTA #1 (55757,0), 1 CTAs running
GPGPU-Sim uArch: core: 10, cta: 1 initialized @(55758,0)
GPGPU-Sim uArch: Shader 4 finished CTA #0 (55775,0), 1 CTAs running
GPGPU-Sim uArch: core:  4, cta: 0 initialized @(55776,0)
GPGPU-Sim uArch: Shader 13 finished CTA #1 (55790,0), 1 CTAs running
GPGPU-Sim uArch: core: 13, cta: 1 initialized @(55791,0)
GPGPU-Sim uArch: Shader 1 finished CTA #1 (55799,0), 1 CTAs running
GPGPU-Sim uArch: core:  1, cta: 1 initialized @(55800,0)
GPGPU-Sim uArch: Shader 7 finished CTA #1 (55808,0), 1 CTAs running
GPGPU-Sim uArch: core:  7, cta: 1 initialized @(55809,0)
GPGPU-Sim uArch: Shader 6 finished CTA #0 (55815,0), 1 CTAs running
GPGPU-Sim uArch: core:  6, cta: 0 initialized @(55816,0)
GPGPU-Sim uArch: Shader 5 finished CTA #0 (55818,0), 1 CTAs running
GPGPU-Sim uArch: Shader 9 finished CTA #1 (55818,0), 1 CTAs running
GPGPU-Sim uArch: core:  9, cta: 1 initialized @(55819,0)
GPGPU-Sim uArch: core:  5, cta: 0 initialized @(55819,0)
GPGPU-Sim uArch: Shader 0 finished CTA #1 (55833,0), 1 CTAs running
GPGPU-Sim uArch: Shader 2 finished CTA #1 (55833,0), 1 CTAs running
GPGPU-Sim uArch: core:  0, cta: 1 initialized @(55834,0)
GPGPU-Sim uArch: core:  2, cta: 1 initialized @(55834,0)
GPGPU-Sim uArch: Shader 13 finished CTA #0 (55838,0), 1 CTAs running
GPGPU-Sim uArch: core: 13, cta: 0 initialized @(55839,0)
GPGPU-Sim uArch: Shader 3 finished CTA #0 (55986,0), 1 CTAs running
GPGPU-Sim uArch: core:  3, cta: 0 initialized @(55987,0)
GPGPU-Sim uArch: Shader 6 finished CTA #1 (55989,0), 1 CTAs running
GPGPU-Sim uArch: core:  6, cta: 1 initialized @(55990,0)
GPGPU-Sim uArch: Shader 9 finished CTA #0 (55992,0), 1 CTAs running
GPGPU-Sim uArch: core:  9, cta: 0 initialized @(55993,0)
GPGPU-Sim uArch: cycles simulated: 56000  inst.: 9841024 (ipc=175.7) sim_rate=38744 (inst/sec) elapsed = 0:0:04:14 / Wed May 13 00:39:59 2015
GPGPU-Sim uArch: Shader 14 finished CTA #0 (56001,0), 1 CTAs running
GPGPU-Sim uArch: core: 14, cta: 0 initialized @(56002,0)
GPGPU-Sim uArch: Shader 5 finished CTA #1 (56025,0), 1 CTAs running
GPGPU-Sim uArch: core:  5, cta: 1 initialized @(56026,0)
GPGPU-Sim uArch: Shader 8 finished CTA #0 (56028,0), 1 CTAs running
GPGPU-Sim uArch: core:  8, cta: 0 initialized @(56029,0)
GPGPU-Sim uArch: Shader 2 finished CTA #0 (56031,0), 1 CTAs running
GPGPU-Sim uArch: core:  2, cta: 0 initialized @(56032,0)
GPGPU-Sim uArch: Shader 3 finished CTA #1 (56064,0), 1 CTAs running
GPGPU-Sim uArch: core:  3, cta: 1 initialized @(56065,0)
GPGPU-Sim uArch: Shader 12 finished CTA #0 (56073,0), 1 CTAs running
GPGPU-Sim uArch: core: 12, cta: 0 initialized @(56074,0)
GPGPU-Sim uArch: Shader 11 finished CTA #0 (56112,0), 1 CTAs running
GPGPU-Sim uArch: core: 11, cta: 0 initialized @(56113,0)
GPGPU-Sim uArch: Shader 14 finished CTA #1 (56115,0), 1 CTAs running
GPGPU-Sim uArch: core: 14, cta: 1 initialized @(56116,0)
GPGPU-Sim uArch: Shader 12 finished CTA #1 (56121,0), 1 CTAs running
GPGPU-Sim uArch: core: 12, cta: 1 initialized @(56122,0)
GPGPU-Sim uArch: Shader 8 finished CTA #1 (56124,0), 1 CTAs running
GPGPU-Sim uArch: core:  8, cta: 1 initialized @(56125,0)
GPGPU-Sim uArch: Shader 11 finished CTA #1 (56164,0), 1 CTAs running
GPGPU-Sim uArch: core: 11, cta: 1 initialized @(56165,0)
GPGPU-Sim PTX: 9900000 instructions simulated : ctaid=(58,0,0) tid=(95,0,0)
GPGPU-Sim uArch: cycles simulated: 56500  inst.: 9964800 (ipc=176.4) sim_rate=38623 (inst/sec) elapsed = 0:0:04:18 / Wed May 13 00:40:03 2015
GPGPU-Sim PTX: 10000000 instructions simulated : ctaid=(44,0,0) tid=(127,0,0)
GPGPU-Sim PTX: 10100000 instructions simulated : ctaid=(44,0,0) tid=(31,0,0)
GPGPU-Sim uArch: cycles simulated: 57000  inst.: 10103680 (ipc=177.3) sim_rate=38711 (inst/sec) elapsed = 0:0:04:21 / Wed May 13 00:40:06 2015
GPGPU-Sim PTX: 10200000 instructions simulated : ctaid=(43,0,0) tid=(63,0,0)
GPGPU-Sim uArch: cycles simulated: 57500  inst.: 10193664 (ipc=177.3) sim_rate=38612 (inst/sec) elapsed = 0:0:04:24 / Wed May 13 00:40:09 2015
GPGPU-Sim PTX: 10300000 instructions simulated : ctaid=(46,0,0) tid=(95,0,0)
GPGPU-Sim uArch: cycles simulated: 58000  inst.: 10311808 (ipc=177.8) sim_rate=38621 (inst/sec) elapsed = 0:0:04:27 / Wed May 13 00:40:12 2015
GPGPU-Sim PTX: 10400000 instructions simulated : ctaid=(52,0,0) tid=(127,0,0)
GPGPU-Sim PTX: 10500000 instructions simulated : ctaid=(47,0,0) tid=(31,0,0)
GPGPU-Sim PTX: 10600000 instructions simulated : ctaid=(39,0,0) tid=(63,0,0)
GPGPU-Sim uArch: cycles simulated: 58500  inst.: 10607488 (ipc=181.3) sim_rate=38855 (inst/sec) elapsed = 0:0:04:33 / Wed May 13 00:40:18 2015
GPGPU-Sim PTX: 10700000 instructions simulated : ctaid=(54,0,0) tid=(95,0,0)
GPGPU-Sim PTX: 10800000 instructions simulated : ctaid=(50,0,0) tid=(127,0,0)
GPGPU-Sim uArch: cycles simulated: 59000  inst.: 10785024 (ipc=182.8) sim_rate=39076 (inst/sec) elapsed = 0:0:04:36 / Wed May 13 00:40:21 2015
GPGPU-Sim PTX: 10900000 instructions simulated : ctaid=(40,0,0) tid=(31,0,0)
GPGPU-Sim uArch: cycles simulated: 59500  inst.: 10883840 (ipc=182.9) sim_rate=39010 (inst/sec) elapsed = 0:0:04:39 / Wed May 13 00:40:24 2015
GPGPU-Sim PTX: 11000000 instructions simulated : ctaid=(53,0,0) tid=(63,0,0)
GPGPU-Sim uArch: cycles simulated: 60000  inst.: 11005440 (ipc=183.4) sim_rate=39026 (inst/sec) elapsed = 0:0:04:42 / Wed May 13 00:40:27 2015
GPGPU-Sim PTX: 11100000 instructions simulated : ctaid=(30,0,0) tid=(95,0,0)
GPGPU-Sim uArch: cycles simulated: 60500  inst.: 11127680 (ipc=183.9) sim_rate=39044 (inst/sec) elapsed = 0:0:04:45 / Wed May 13 00:40:30 2015
GPGPU-Sim PTX: 11200000 instructions simulated : ctaid=(58,0,0) tid=(127,0,0)
GPGPU-Sim uArch: cycles simulated: 61000  inst.: 11248000 (ipc=184.4) sim_rate=39055 (inst/sec) elapsed = 0:0:04:48 / Wed May 13 00:40:33 2015
GPGPU-Sim PTX: 11300000 instructions simulated : ctaid=(32,0,0) tid=(31,0,0)
GPGPU-Sim PTX: 11400000 instructions simulated : ctaid=(57,0,0) tid=(63,0,0)
GPGPU-Sim uArch: cycles simulated: 61500  inst.: 11370112 (ipc=184.9) sim_rate=39072 (inst/sec) elapsed = 0:0:04:51 / Wed May 13 00:40:36 2015
GPGPU-Sim PTX: 11500000 instructions simulated : ctaid=(58,0,0) tid=(95,0,0)
GPGPU-Sim uArch: cycles simulated: 62000  inst.: 11503360 (ipc=185.5) sim_rate=39127 (inst/sec) elapsed = 0:0:04:54 / Wed May 13 00:40:39 2015
GPGPU-Sim PTX: 11600000 instructions simulated : ctaid=(38,0,0) tid=(127,0,0)
GPGPU-Sim uArch: cycles simulated: 62500  inst.: 11637504 (ipc=186.2) sim_rate=39183 (inst/sec) elapsed = 0:0:04:57 / Wed May 13 00:40:42 2015
GPGPU-Sim PTX: 11700000 instructions simulated : ctaid=(54,0,0) tid=(31,0,0)
GPGPU-Sim PTX: 11800000 instructions simulated : ctaid=(35,0,0) tid=(63,0,0)
GPGPU-Sim uArch: cycles simulated: 63000  inst.: 11767040 (ipc=186.8) sim_rate=39223 (inst/sec) elapsed = 0:0:05:00 / Wed May 13 00:40:45 2015
GPGPU-Sim PTX: 11900000 instructions simulated : ctaid=(48,0,0) tid=(95,0,0)
GPGPU-Sim uArch: cycles simulated: 63500  inst.: 11899904 (ipc=187.4) sim_rate=39273 (inst/sec) elapsed = 0:0:05:03 / Wed May 13 00:40:48 2015
GPGPU-Sim PTX: 12000000 instructions simulated : ctaid=(40,0,0) tid=(127,0,0)
GPGPU-Sim uArch: cycles simulated: 64000  inst.: 12030592 (ipc=188.0) sim_rate=39315 (inst/sec) elapsed = 0:0:05:06 / Wed May 13 00:40:51 2015
GPGPU-Sim PTX: 12100000 instructions simulated : ctaid=(38,0,0) tid=(31,0,0)
GPGPU-Sim PTX: 12200000 instructions simulated : ctaid=(55,0,0) tid=(63,0,0)
GPGPU-Sim uArch: cycles simulated: 64500  inst.: 12163456 (ipc=188.6) sim_rate=39363 (inst/sec) elapsed = 0:0:05:09 / Wed May 13 00:40:54 2015
GPGPU-Sim PTX: 12300000 instructions simulated : ctaid=(34,0,0) tid=(95,0,0)
GPGPU-Sim uArch: cycles simulated: 65000  inst.: 12297600 (ipc=189.2) sim_rate=39415 (inst/sec) elapsed = 0:0:05:12 / Wed May 13 00:40:57 2015
GPGPU-Sim PTX: 12400000 instructions simulated : ctaid=(52,0,0) tid=(127,0,0)
GPGPU-Sim uArch: cycles simulated: 65500  inst.: 12431744 (ipc=189.8) sim_rate=39465 (inst/sec) elapsed = 0:0:05:15 / Wed May 13 00:41:00 2015
GPGPU-Sim PTX: 12500000 instructions simulated : ctaid=(54,0,0) tid=(31,0,0)
GPGPU-Sim uArch: cycles simulated: 66000  inst.: 12559872 (ipc=190.3) sim_rate=39496 (inst/sec) elapsed = 0:0:05:18 / Wed May 13 00:41:03 2015
GPGPU-Sim PTX: 12600000 instructions simulated : ctaid=(56,0,0) tid=(63,0,0)
GPGPU-Sim PTX: 12700000 instructions simulated : ctaid=(52,0,0) tid=(95,0,0)
GPGPU-Sim uArch: cycles simulated: 66500  inst.: 12688896 (ipc=190.8) sim_rate=39529 (inst/sec) elapsed = 0:0:05:21 / Wed May 13 00:41:06 2015
GPGPU-Sim PTX: 12800000 instructions simulated : ctaid=(41,0,0) tid=(127,0,0)
GPGPU-Sim uArch: cycles simulated: 67000  inst.: 12819072 (ipc=191.3) sim_rate=39565 (inst/sec) elapsed = 0:0:05:24 / Wed May 13 00:41:09 2015
GPGPU-Sim PTX: 12900000 instructions simulated : ctaid=(53,0,0) tid=(31,0,0)
GPGPU-Sim uArch: cycles simulated: 67500  inst.: 12949888 (ipc=191.9) sim_rate=39602 (inst/sec) elapsed = 0:0:05:27 / Wed May 13 00:41:12 2015
GPGPU-Sim PTX: 13000000 instructions simulated : ctaid=(47,0,0) tid=(63,0,0)
GPGPU-Sim PTX: 13100000 instructions simulated : ctaid=(56,0,0) tid=(95,0,0)
GPGPU-Sim uArch: cycles simulated: 68000  inst.: 13081216 (ipc=192.4) sim_rate=39640 (inst/sec) elapsed = 0:0:05:30 / Wed May 13 00:41:15 2015
GPGPU-Sim PTX: 13200000 instructions simulated : ctaid=(38,0,0) tid=(127,0,0)
GPGPU-Sim uArch: cycles simulated: 68500  inst.: 13219712 (ipc=193.0) sim_rate=39698 (inst/sec) elapsed = 0:0:05:33 / Wed May 13 00:41:18 2015
GPGPU-Sim PTX: 13300000 instructions simulated : ctaid=(36,0,0) tid=(31,0,0)
GPGPU-Sim uArch: cycles simulated: 69000  inst.: 13353344 (ipc=193.5) sim_rate=39742 (inst/sec) elapsed = 0:0:05:36 / Wed May 13 00:41:21 2015
GPGPU-Sim PTX: 13400000 instructions simulated : ctaid=(56,0,0) tid=(63,0,0)
GPGPU-Sim PTX: 13500000 instructions simulated : ctaid=(30,0,0) tid=(95,0,0)
GPGPU-Sim uArch: cycles simulated: 69500  inst.: 13485184 (ipc=194.0) sim_rate=39779 (inst/sec) elapsed = 0:0:05:39 / Wed May 13 00:41:24 2015
GPGPU-Sim PTX: 13600000 instructions simulated : ctaid=(51,0,0) tid=(127,0,0)
GPGPU-Sim uArch: cycles simulated: 70000  inst.: 13620096 (ipc=194.6) sim_rate=39824 (inst/sec) elapsed = 0:0:05:42 / Wed May 13 00:41:27 2015
GPGPU-Sim PTX: 13700000 instructions simulated : ctaid=(55,0,0) tid=(31,0,0)
GPGPU-Sim uArch: cycles simulated: 70500  inst.: 13752960 (ipc=195.1) sim_rate=39863 (inst/sec) elapsed = 0:0:05:45 / Wed May 13 00:41:30 2015
GPGPU-Sim PTX: 13800000 instructions simulated : ctaid=(40,0,0) tid=(63,0,0)
GPGPU-Sim PTX: 13900000 instructions simulated : ctaid=(58,0,0) tid=(95,0,0)
GPGPU-Sim uArch: cycles simulated: 71000  inst.: 13891200 (ipc=195.7) sim_rate=39802 (inst/sec) elapsed = 0:0:05:49 / Wed May 13 00:41:34 2015
GPGPU-Sim PTX: 14000000 instructions simulated : ctaid=(44,0,0) tid=(127,0,0)
GPGPU-Sim uArch: cycles simulated: 71500  inst.: 14027904 (ipc=196.2) sim_rate=39852 (inst/sec) elapsed = 0:0:05:52 / Wed May 13 00:41:37 2015
GPGPU-Sim PTX: 14100000 instructions simulated : ctaid=(48,0,0) tid=(31,0,0)
GPGPU-Sim uArch: cycles simulated: 72000  inst.: 14161024 (ipc=196.7) sim_rate=39890 (inst/sec) elapsed = 0:0:05:55 / Wed May 13 00:41:40 2015
GPGPU-Sim PTX: 14200000 instructions simulated : ctaid=(34,0,0) tid=(63,0,0)
GPGPU-Sim PTX: 14300000 instructions simulated : ctaid=(54,0,0) tid=(95,0,0)
GPGPU-Sim uArch: cycles simulated: 72500  inst.: 14291584 (ipc=197.1) sim_rate=39920 (inst/sec) elapsed = 0:0:05:58 / Wed May 13 00:41:43 2015
GPGPU-Sim PTX: 14400000 instructions simulated : ctaid=(41,0,0) tid=(127,0,0)
GPGPU-Sim uArch: cycles simulated: 73000  inst.: 14424448 (ipc=197.6) sim_rate=39956 (inst/sec) elapsed = 0:0:06:01 / Wed May 13 00:41:46 2015
GPGPU-Sim PTX: 14500000 instructions simulated : ctaid=(34,0,0) tid=(31,0,0)
GPGPU-Sim uArch: cycles simulated: 73500  inst.: 14553856 (ipc=198.0) sim_rate=39983 (inst/sec) elapsed = 0:0:06:04 / Wed May 13 00:41:49 2015
GPGPU-Sim PTX: 14600000 instructions simulated : ctaid=(38,0,0) tid=(63,0,0)
GPGPU-Sim PTX: 14700000 instructions simulated : ctaid=(48,0,0) tid=(95,0,0)
GPGPU-Sim uArch: cycles simulated: 74000  inst.: 14687232 (ipc=198.5) sim_rate=40019 (inst/sec) elapsed = 0:0:06:07 / Wed May 13 00:41:52 2015
GPGPU-Sim PTX: 14800000 instructions simulated : ctaid=(33,0,0) tid=(127,0,0)
GPGPU-Sim uArch: cycles simulated: 74500  inst.: 14823552 (ipc=199.0) sim_rate=40063 (inst/sec) elapsed = 0:0:06:10 / Wed May 13 00:41:55 2015
GPGPU-Sim PTX: 14900000 instructions simulated : ctaid=(37,0,0) tid=(31,0,0)
GPGPU-Sim uArch: cycles simulated: 75000  inst.: 14957056 (ipc=199.4) sim_rate=40099 (inst/sec) elapsed = 0:0:06:13 / Wed May 13 00:41:58 2015
GPGPU-Sim PTX: 15000000 instructions simulated : ctaid=(49,0,0) tid=(63,0,0)
GPGPU-Sim PTX: 15100000 instructions simulated : ctaid=(54,0,0) tid=(95,0,0)
GPGPU-Sim uArch: cycles simulated: 75500  inst.: 15087616 (ipc=199.8) sim_rate=40126 (inst/sec) elapsed = 0:0:06:16 / Wed May 13 00:42:01 2015
GPGPU-Sim PTX: 15200000 instructions simulated : ctaid=(47,0,0) tid=(127,0,0)
GPGPU-Sim uArch: cycles simulated: 76000  inst.: 15221888 (ipc=200.3) sim_rate=40057 (inst/sec) elapsed = 0:0:06:20 / Wed May 13 00:42:05 2015
GPGPU-Sim PTX: 15300000 instructions simulated : ctaid=(32,0,0) tid=(31,0,0)
GPGPU-Sim uArch: cycles simulated: 76500  inst.: 15352448 (ipc=200.7) sim_rate=40084 (inst/sec) elapsed = 0:0:06:23 / Wed May 13 00:42:08 2015
GPGPU-Sim PTX: 15400000 instructions simulated : ctaid=(42,0,0) tid=(63,0,0)
GPGPU-Sim PTX: 15500000 instructions simulated : ctaid=(45,0,0) tid=(95,0,0)
GPGPU-Sim uArch: cycles simulated: 77000  inst.: 15490432 (ipc=201.2) sim_rate=40130 (inst/sec) elapsed = 0:0:06:26 / Wed May 13 00:42:11 2015
GPGPU-Sim PTX: 15600000 instructions simulated : ctaid=(44,0,0) tid=(127,0,0)
GPGPU-Sim uArch: cycles simulated: 77500  inst.: 15623168 (ipc=201.6) sim_rate=40162 (inst/sec) elapsed = 0:0:06:29 / Wed May 13 00:42:14 2015
GPGPU-Sim PTX: 15700000 instructions simulated : ctaid=(41,0,0) tid=(31,0,0)
GPGPU-Sim uArch: cycles simulated: 78000  inst.: 15755264 (ipc=202.0) sim_rate=40192 (inst/sec) elapsed = 0:0:06:32 / Wed May 13 00:42:17 2015
GPGPU-Sim PTX: 15800000 instructions simulated : ctaid=(46,0,0) tid=(63,0,0)
GPGPU-Sim PTX: 15900000 instructions simulated : ctaid=(44,0,0) tid=(95,0,0)
GPGPU-Sim uArch: cycles simulated: 78500  inst.: 15887360 (ipc=202.4) sim_rate=40221 (inst/sec) elapsed = 0:0:06:35 / Wed May 13 00:42:20 2015
GPGPU-Sim PTX: 16000000 instructions simulated : ctaid=(41,0,0) tid=(127,0,0)
GPGPU-Sim uArch: cycles simulated: 79000  inst.: 16020864 (ipc=202.8) sim_rate=40253 (inst/sec) elapsed = 0:0:06:38 / Wed May 13 00:42:23 2015
GPGPU-Sim PTX: 16100000 instructions simulated : ctaid=(49,0,0) tid=(31,0,0)
GPGPU-Sim uArch: cycles simulated: 79500  inst.: 16149376 (ipc=203.1) sim_rate=40272 (inst/sec) elapsed = 0:0:06:41 / Wed May 13 00:42:26 2015
GPGPU-Sim PTX: 16200000 instructions simulated : ctaid=(57,0,0) tid=(63,0,0)
GPGPU-Sim PTX: 16300000 instructions simulated : ctaid=(53,0,0) tid=(95,0,0)
GPGPU-Sim uArch: cycles simulated: 80000  inst.: 16288768 (ipc=203.6) sim_rate=40318 (inst/sec) elapsed = 0:0:06:44 / Wed May 13 00:42:29 2015
GPGPU-Sim PTX: 16400000 instructions simulated : ctaid=(35,0,0) tid=(127,0,0)
GPGPU-Sim uArch: cycles simulated: 80500  inst.: 16423808 (ipc=204.0) sim_rate=40353 (inst/sec) elapsed = 0:0:06:47 / Wed May 13 00:42:32 2015
GPGPU-Sim PTX: 16500000 instructions simulated : ctaid=(31,0,0) tid=(31,0,0)
GPGPU-Sim uArch: cycles simulated: 81000  inst.: 16555776 (ipc=204.4) sim_rate=40379 (inst/sec) elapsed = 0:0:06:50 / Wed May 13 00:42:35 2015
GPGPU-Sim PTX: 16600000 instructions simulated : ctaid=(40,0,0) tid=(63,0,0)
GPGPU-Sim PTX: 16700000 instructions simulated : ctaid=(50,0,0) tid=(95,0,0)
GPGPU-Sim uArch: cycles simulated: 81500  inst.: 16685312 (ipc=204.7) sim_rate=40400 (inst/sec) elapsed = 0:0:06:53 / Wed May 13 00:42:38 2015
GPGPU-Sim PTX: 16800000 instructions simulated : ctaid=(41,0,0) tid=(127,0,0)
GPGPU-Sim uArch: cycles simulated: 82000  inst.: 16818944 (ipc=205.1) sim_rate=40430 (inst/sec) elapsed = 0:0:06:56 / Wed May 13 00:42:41 2015
GPGPU-Sim PTX: 16900000 instructions simulated : ctaid=(53,0,0) tid=(31,0,0)
GPGPU-Sim uArch: cycles simulated: 82500  inst.: 16949888 (ipc=205.5) sim_rate=40356 (inst/sec) elapsed = 0:0:07:00 / Wed May 13 00:42:45 2015
GPGPU-Sim PTX: 17000000 instructions simulated : ctaid=(55,0,0) tid=(63,0,0)
GPGPU-Sim PTX: 17100000 instructions simulated : ctaid=(51,0,0) tid=(95,0,0)
GPGPU-Sim uArch: cycles simulated: 83000  inst.: 17087616 (ipc=205.9) sim_rate=40396 (inst/sec) elapsed = 0:0:07:03 / Wed May 13 00:42:48 2015
GPGPU-Sim PTX: 17200000 instructions simulated : ctaid=(42,0,0) tid=(127,0,0)
GPGPU-Sim uArch: cycles simulated: 83500  inst.: 17219584 (ipc=206.2) sim_rate=40421 (inst/sec) elapsed = 0:0:07:06 / Wed May 13 00:42:51 2015
GPGPU-Sim PTX: 17300000 instructions simulated : ctaid=(36,0,0) tid=(31,0,0)
GPGPU-Sim uArch: cycles simulated: 84000  inst.: 17353472 (ipc=206.6) sim_rate=40356 (inst/sec) elapsed = 0:0:07:10 / Wed May 13 00:42:55 2015
GPGPU-Sim PTX: 17400000 instructions simulated : ctaid=(47,0,0) tid=(63,0,0)
GPGPU-Sim PTX: 17500000 instructions simulated : ctaid=(42,0,0) tid=(95,0,0)
GPGPU-Sim uArch: cycles simulated: 84500  inst.: 17483392 (ipc=206.9) sim_rate=40377 (inst/sec) elapsed = 0:0:07:13 / Wed May 13 00:42:58 2015
GPGPU-Sim PTX: 17600000 instructions simulated : ctaid=(51,0,0) tid=(127,0,0)
GPGPU-Sim uArch: cycles simulated: 85000  inst.: 17616896 (ipc=207.3) sim_rate=40405 (inst/sec) elapsed = 0:0:07:16 / Wed May 13 00:43:01 2015
GPGPU-Sim PTX: 17700000 instructions simulated : ctaid=(49,0,0) tid=(31,0,0)
GPGPU-Sim uArch: cycles simulated: 85500  inst.: 17749760 (ipc=207.6) sim_rate=40432 (inst/sec) elapsed = 0:0:07:19 / Wed May 13 00:43:04 2015
GPGPU-Sim PTX: 17800000 instructions simulated : ctaid=(59,0,0) tid=(63,0,0)
GPGPU-Sim PTX: 17900000 instructions simulated : ctaid=(37,0,0) tid=(95,0,0)
GPGPU-Sim uArch: cycles simulated: 86000  inst.: 17881984 (ipc=207.9) sim_rate=40456 (inst/sec) elapsed = 0:0:07:22 / Wed May 13 00:43:07 2015
GPGPU-Sim PTX: 18000000 instructions simulated : ctaid=(32,0,0) tid=(127,0,0)
GPGPU-Sim uArch: cycles simulated: 86500  inst.: 18016000 (ipc=208.3) sim_rate=40485 (inst/sec) elapsed = 0:0:07:25 / Wed May 13 00:43:10 2015
GPGPU-Sim PTX: 18100000 instructions simulated : ctaid=(57,0,0) tid=(31,0,0)
GPGPU-Sim uArch: cycles simulated: 87000  inst.: 18147200 (ipc=208.6) sim_rate=40507 (inst/sec) elapsed = 0:0:07:28 / Wed May 13 00:43:13 2015
GPGPU-Sim PTX: 18200000 instructions simulated : ctaid=(45,0,0) tid=(63,0,0)
GPGPU-Sim PTX: 18300000 instructions simulated : ctaid=(30,0,0) tid=(95,0,0)
GPGPU-Sim uArch: cycles simulated: 87500  inst.: 18280320 (ipc=208.9) sim_rate=40532 (inst/sec) elapsed = 0:0:07:31 / Wed May 13 00:43:16 2015
GPGPU-Sim PTX: 18400000 instructions simulated : ctaid=(37,0,0) tid=(127,0,0)
GPGPU-Sim uArch: cycles simulated: 88000  inst.: 18410240 (ipc=209.2) sim_rate=40551 (inst/sec) elapsed = 0:0:07:34 / Wed May 13 00:43:19 2015
GPGPU-Sim PTX: 18500000 instructions simulated : ctaid=(56,0,0) tid=(31,0,0)
GPGPU-Sim uArch: cycles simulated: 88500  inst.: 18541952 (ipc=209.5) sim_rate=40573 (inst/sec) elapsed = 0:0:07:37 / Wed May 13 00:43:22 2015
GPGPU-Sim PTX: 18600000 instructions simulated : ctaid=(30,0,0) tid=(63,0,0)
GPGPU-Sim PTX: 18700000 instructions simulated : ctaid=(48,0,0) tid=(95,0,0)
[...]
traffic_breakdown_memtocore[GLOBAL_ACC_W] = 196608 {8:24576,}
traffic_breakdown_memtocore[INST_ACC_R] = 4094688 {136:30108,}
maxmrqlatency = 144 
maxdqlatency = 0 
maxmflatency = 658 
averagemflatency = 242 
max_icnt2mem_latency = 349 
max_icnt2sh_latency = 503607 
mrq_lat_table:2158 	581 	247 	1768 	2078 	1745 	784 	13 	0 	0 	0 	0 	0 	0 	0 	0 	0 	0 	0 	0 	0 	0 	0 	0 	0 	0 	0 	0 	0 	0 	0 	0 	
dq_lat_table:0 	0 	0 	0 	0 	0 	0 	0 	0 	0 	0 	0 	0 	0 	0 	0 	0 	0 	0 	0 	0 	0 	0 	0 	0 	0 	0 	0 	0 	0 	0 	0 	
mf_lat_table:0 	0 	0 	0 	0 	0 	0 	17165 	9178 	138 	0 	0 	0 	0 	0 	0 	0 	0 	0 	0 	0 	0 	0 	0 	0 	0 	0 	0 	0 	0 	0 	0 	
icnt2mem_lat_table:0 	0 	0 	32747 	2097 	11226 	9480 	979 	60 	0 	0 	0 	0 	0 	0 	0 	0 	0 	0 	0 	0 	0 	0 	0 	
icnt2sh_lat_table:0 	0 	0 	726 	673 	506 	0 	0 	0 	0 	0 	0 	0 	0 	0 	1920 	3840 	5760 	13056 	0 	0 	0 	0 	0 	
mf_lat_pw_table:0 	0 	0 	0 	0 	0 	0 	72 	36 	0 	0 	0 	0 	0 	0 	0 	0 	0 	0 	0 	0 	0 	0 	0 	0 	0 	0 	0 	0 	0 	0 	0 	
maximum concurrent accesses to same row:
dram[0]:         7         8         6         5        10        10         0         0         0         0         0         0         0         0         0         0 
dram[1]:         8         8         6         4        10        10         0         0         0         0         0         0         0         0         0         0 
dram[2]:         8         8         6         4        10        12         0         0         0         0         0         0         0         0         0         0 
dram[3]:         8         8         6         4        10        12         0         0         0         0         0         0         0         0         0         0 
dram[4]:         8         8         6         4        10        12         0         0         0         0         0         0         0         0         0         0 
dram[5]:         7         8         6         4        10        12         0         0         0         0         0         0         0         0         0         0 
maximum service time to same row:
dram[0]:    203689    199748    282495    278385    425653    425675     57502     57572    169619    169657    281576    281691     55090     55043     92529     92613 
dram[1]:    203488    199081    281895    277804    425615    425612     57497     57569    169615    169654    281572    281688     55094     55107     92619     92663 
dram[2]:    202824    198316    281132    277044    425576    425587     57547     57469    169546    169610    281629    281731     55053     55072     92575     92638 
dram[3]:    202123    197641    280508    276438    425635    425772     57544     57465    169540    169607    281626    281726     55157     55071     92615     92535 
dram[4]:    201474    196854    279772    275657    425622    425740     57593     57585    169553    169676    281685    281678     55098     55035     92591     92512 
dram[5]:    200063    196271    279129    274899    425743    425899     57588     57581    169549    169672    281682    281674     55088     55114     92638     92699 
average row accesses per activate:
dram[0]: 42.250000 84.000000 83.000000 82.500000 60.000000 60.000000 32.000000 32.000000 32.000000 32.000000 32.000000 32.000000 72.000000 72.000000 160.000000 160.000000 
dram[1]: 84.000000 84.000000 83.000000 82.000000 60.000000 60.000000 32.000000 32.000000 32.000000 32.000000 32.000000 32.000000 72.000000 72.000000 160.000000 160.000000 
dram[2]: 84.000000 84.000000 83.000000 82.000000 60.000000 61.000000 32.000000 32.000000 32.000000 32.000000 32.000000 32.000000 72.000000 71.000000 160.000000 160.000000 
dram[3]: 84.000000 84.000000 83.000000 82.000000 60.000000 56.000000 32.000000 32.000000 32.000000 32.000000 32.000000 32.000000 72.000000 80.000000 160.000000 160.000000 
dram[4]: 84.000000 84.000000 83.000000 82.000000 60.000000 56.000000 32.000000 32.000000 32.000000 32.000000 32.000000 32.000000 72.000000 80.000000 160.000000 160.000000 
dram[5]: 83.500000 84.000000 83.000000 82.000000 60.000000 56.000000 32.000000 32.000000 32.000000 32.000000 32.000000 32.000000 72.000000 80.000000 160.000000 160.000000 
average row locality = 9374/134 = 69.955223
number of total memory accesses made:
dram[0]:         0         0         0         0         0         0         0         0         0         0         0         0         0         0         0         0 
dram[1]:         0         0         0         0         0         0         0         0         0         0         0         0         0         0         0         0 
dram[2]:         0         0         0         0         0         0         0         0         0         0         0         0         0         0         0         0 
dram[3]:         0         0         0         0         0         0         0         0         0         0         0         0         0         0         0         0 
dram[4]:         0         0         0         0         0         0         0         0         0         0         0         0         0         0         0         0 
dram[5]:         0         0         0         0         0         0         0         0         0         0         0         0         0         0         0         0 
total accesses: 0
min_bank_accesses = 0!
min_chip_accesses = 0!
number of total read accesses:
dram[0]:        41        40        38        37        32        32        32        32        32        32        32        32        32        32        32        32 
dram[1]:        40        40        38        36        32        32        32        32        32        32        32        32        32        32        32        32 
dram[2]:        40        40        38        36        32        34        32        32        32        32        32        32        32        31        32        32 
dram[3]:        40        40        38        36        32        32        32        32        32        32        32        32        32        32        32        32 
dram[4]:        40        40        38        36        32        32        32        32        32        32        32        32        32        32        32        32 
dram[5]:        39        40        38        36        32        32        32        32        32        32        32        32        32        32        32        32 
total reads: 3230
bank skew: 41/31 = 1.32
chip skew: 540/537 = 1.01
number of total write accesses:
dram[0]:       128       128       128       128        88        88         0         0         0         0         0         0        40        40       128       128 
dram[1]:       128       128       128       128        88        88         0         0         0         0         0         0        40        40       128       128 
dram[2]:       128       128       128       128        88        88         0         0         0         0         0         0        40        40       128       128 
dram[3]:       128       128       128       128        88        80         0         0         0         0         0         0        40        48       128       128 
dram[4]:       128       128       128       128        88        80         0         0         0         0         0         0        40        48       128       128 
dram[5]:       128       128       128       128        88        80         0         0         0         0         0         0        40        48       128       128 
total reads: 6144
min_bank_accesses = 0!
chip skew: 1024/1024 = 1.00
average mf latency per bank:
dram[0]:        733       701       699       698       705       690       354       352       347       342       347       344       790       884       717       768
dram[1]:        730       747       729       763       709       740       277       272       276       270       273       278       725       872       798       804
dram[2]:        720       717       710       732       698       733       354       344       338       350       335       352       750       881       771       789
dram[3]:        730       741       702       720       722       685       278       275       274       276       269       281       803       686       797       761
dram[4]:        708       709       690       709       697       667       356       345       358       335       351       336       789       713       768       726
dram[5]:        737       730       735       737       692       688       282       274       275       274       279       272       787       783       762       749
maximum mf latency per bank:
dram[0]:        442       385       420       430       414       387       315       309       296       308       305       299       571       603       399       396
dram[1]:        460       403       441       438       412       475       311       298       304       304       301       307       555       646       439       437
dram[2]:        446       390       428       416       399       442       299       301       307       295       306       295       543       650       396       435
dram[3]:        414       466       408       421       395       380       304       302       299       295       302       301       658       535       444       419
dram[4]:        402       491       384       406       386       352       302       295       306       310       302       299       638       562       442       402
dram[5]:        416       472       433       427       403       418       308       299       302       306       308       296       510       593       399       419

Number of Memory Banks Accessed per Memory Operation per Warp (from 0):
0	0	0	0	0	0	0	0	0	0	0	0	0	0	0	0	0	0	0	0	0	0	0	0	0	0	0	0	0	0	0	0	0	0	0	0	0	0	0	0	0	0	0	0	0	0	0	0	0	0	0	0	0	0	0	0	0	0	0	0	0	0	0	0	0	0	0	0	0	0	0	0	0	0	0	0	0	0	0	0	0	0	0	0	0	0	0	0	0	0	0	0	0	0	0	0	
Average # of Memory Banks Accessed per Memory Operation per Warp=-nan

position of mrq chosen
0	0	0	0	0	0	0	0	0	0	0	0	0	0	0	0	

average position of mrq chosen = -nan
Memory Partition 0: 
Cache L2_bank_000:
MSHR contents

Cache L2_bank_001:
MSHR contents

In Dram Latency Queue (total = 0): 
DRAM[0]: 16 bks, busW=4 BL=8 CL=12, tRRD=2 tCCD=6, tRCD=12 tRAS=28 tRP=12 tRC=40
n_cmd=664762 n_nop=662626 n_act=24 n_pre=8 n_req=1564 n_rd=1080 n_write=1024 bw_util=0.00633
n_activity=11919 dram_eff=0.353
bk0: 82a 663350i bk1: 80a 663350i bk2: 76a 663437i bk3: 74a 663413i bk4: 64a 663810i bk5: 64a 663752i bk6: 64a 664578i bk7: 64a 664567i bk8: 64a 664588i bk9: 64a 664589i bk10: 64a 664578i bk11: 64a 664565i bk12: 64a 664174i bk13: 64a 664197i bk14: 64a 663420i bk15: 64a 663385i 
dram_util_bins: 0 0 0 0 0 0 0 0 0 0
dram_eff_bins: 0 0 0 0 0 0 0 0 0 0
mrqq: max=16 avg=0.0706554
Memory Partition 1: 
Cache L2_bank_002:
MSHR contents

Cache L2_bank_003:
MSHR contents

In Dram Latency Queue (total = 0): 
DRAM[1]: 16 bks, busW=4 BL=8 CL=12, tRRD=2 tCCD=6, tRCD=12 tRAS=28 tRP=12 tRC=40
n_cmd=664762 n_nop=662634 n_act=22 n_pre=6 n_req=1562 n_rd=1076 n_write=1024 bw_util=0.006318
n_activity=11576 dram_eff=0.3628
bk0: 80a 663398i bk1: 80a 663340i bk2: 76a 663445i bk3: 72a 663379i bk4: 64a 663786i bk5: 64a 663700i bk6: 64a 664579i bk7: 64a 664572i bk8: 64a 664583i bk9: 64a 664586i bk10: 64a 664575i bk11: 64a 664562i bk12: 64a 664144i bk13: 64a 664117i bk14: 64a 663469i bk15: 64a 663378i 
dram_util_bins: 0 0 0 0 0 0 0 0 0 0
dram_eff_bins: 0 0 0 0 0 0 0 0 0 0
mrqq: max=16 avg=0.0755519
Memory Partition 2: 
Cache L2_bank_004:
MSHR contents

Cache L2_bank_005:
MSHR contents

In Dram Latency Queue (total = 0): 
DRAM[2]: 16 bks, busW=4 BL=8 CL=12, tRRD=2 tCCD=6, tRCD=12 tRAS=28 tRP=12 tRC=40
n_cmd=664762 n_nop=662632 n_act=22 n_pre=6 n_req=1563 n_rd=1078 n_write=1024 bw_util=0.006324
n_activity=11583 dram_eff=0.3629
bk0: 80a 663409i bk1: 80a 663317i bk2: 76a 663413i bk3: 72a 663328i bk4: 64a 663769i bk5: 68a 663645i bk6: 64a 664581i bk7: 64a 664581i bk8: 64a 664586i bk9: 64a 664586i bk10: 64a 664575i bk11: 64a 664572i bk12: 64a 664185i bk13: 62a 664108i bk14: 64a 663408i bk15: 64a 663358i 
dram_util_bins: 0 0 0 0 0 0 0 0 0 0
dram_eff_bins: 0 0 0 0 0 0 0 0 0 0
mrqq: max=16 avg=0.0765552
Memory Partition 3: 
Cache L2_bank_006:
MSHR contents

Cache L2_bank_007:
MSHR contents

In Dram Latency Queue (total = 0): 
DRAM[3]: 16 bks, busW=4 BL=8 CL=12, tRRD=2 tCCD=6, tRCD=12 tRAS=28 tRP=12 tRC=40
n_cmd=664762 n_nop=662634 n_act=22 n_pre=6 n_req=1562 n_rd=1076 n_write=1024 bw_util=0.006318
n_activity=11877 dram_eff=0.3536
bk0: 80a 663406i bk1: 80a 663453i bk2: 76a 663458i bk3: 72a 663440i bk4: 64a 663801i bk5: 64a 663820i bk6: 64a 664578i bk7: 64a 664568i bk8: 64a 664590i bk9: 64a 664585i bk10: 64a 664578i bk11: 64a 664563i bk12: 64a 664182i bk13: 64a 664044i bk14: 64a 663483i bk15: 64a 663421i 
dram_util_bins: 0 0 0 0 0 0 0 0 0 0
dram_eff_bins: 0 0 0 0 0 0 0 0 0 0
mrqq: max=16 avg=0.0677054
Memory Partition 4: 
Cache L2_bank_008:
MSHR contents

Cache L2_bank_009:
MSHR contents

In Dram Latency Queue (total = 0): 
DRAM[4]: 16 bks, busW=4 BL=8 CL=12, tRRD=2 tCCD=6, tRCD=12 tRAS=28 tRP=12 tRC=40
n_cmd=664762 n_nop=662634 n_act=22 n_pre=6 n_req=1562 n_rd=1076 n_write=1024 bw_util=0.006318
n_activity=11844 dram_eff=0.3546
bk0: 80a 663453i bk1: 80a 663400i bk2: 76a 663461i bk3: 72a 663382i bk4: 64a 663803i bk5: 64a 663842i bk6: 64a 664580i bk7: 64a 664584i bk8: 64a 664585i bk9: 64a 664576i bk10: 64a 664594i bk11: 64a 664590i bk12: 64a 664159i bk13: 64a 664052i bk14: 64a 663474i bk15: 64a 663427i 
dram_util_bins: 0 0 0 0 0 0 0 0 0 0
dram_eff_bins: 0 0 0 0 0 0 0 0 0 0
mrqq: max=16 avg=0.0696309
Memory Partition 5: 
Cache L2_bank_010:
MSHR contents

Cache L2_bank_011:
MSHR contents

In Dram Latency Queue (total = 0): 
DRAM[5]: 16 bks, busW=4 BL=8 CL=12, tRRD=2 tCCD=6, tRCD=12 tRAS=28 tRP=12 tRC=40
n_cmd=664762 n_nop=662636 n_act=22 n_pre=6 n_req=1561 n_rd=1074 n_write=1024 bw_util=0.006312
n_activity=11746 dram_eff=0.3572
bk0: 78a 663418i bk1: 80a 663421i bk2: 76a 663460i bk3: 72a 663437i bk4: 64a 663839i bk5: 64a 663855i bk6: 64a 664580i bk7: 64a 664585i bk8: 64a 664582i bk9: 64a 664575i bk10: 64a 664586i bk11: 64a 664573i bk12: 64a 664146i bk13: 64a 664033i bk14: 64a 663422i bk15: 64a 663379i 
dram_util_bins: 0 0 0 0 0 0 0 0 0 0
dram_eff_bins: 0 0 0 0 0 0 0 0 0 0
mrqq: max=16 avg=0.0708991

========= L2 cache stats =========
L2_cache_bank[0]: Access = 4955, Miss = 271, Miss_rate = 0.055, Pending_hits = 433, Reservation_fails = 1764
L2_cache_bank[1]: Access = 4743, Miss = 269, Miss_rate = 0.057, Pending_hits = 423, Reservation_fails = 1721
L2_cache_bank[2]: Access = 4878, Miss = 270, Miss_rate = 0.055, Pending_hits = 426, Reservation_fails = 1703
L2_cache_bank[3]: Access = 4492, Miss = 268, Miss_rate = 0.060, Pending_hits = 420, Reservation_fails = 1681
L2_cache_bank[4]: Access = 4933, Miss = 270, Miss_rate = 0.055, Pending_hits = 426, Reservation_fails = 1594
L2_cache_bank[5]: Access = 4555, Miss = 269, Miss_rate = 0.059, Pending_hits = 420, Reservation_fails = 1787
L2_cache_bank[6]: Access = 4878, Miss = 270, Miss_rate = 0.055, Pending_hits = 426, Reservation_fails = 1597
L2_cache_bank[7]: Access = 4492, Miss = 268, Miss_rate = 0.060, Pending_hits = 420, Reservation_fails = 1543
L2_cache_bank[8]: Access = 4942, Miss = 270, Miss_rate = 0.055, Pending_hits = 427, Reservation_fails = 1643
L2_cache_bank[9]: Access = 4544, Miss = 268, Miss_rate = 0.059, Pending_hits = 420, Reservation_fails = 1518
L2_cache_bank[10]: Access = 4685, Miss = 269, Miss_rate = 0.057, Pending_hits = 423, Reservation_fails = 1542
L2_cache_bank[11]: Access = 4492, Miss = 268, Miss_rate = 0.060, Pending_hits = 420, Reservation_fails = 1430
L2_total_cache_accesses = 56589
L2_total_cache_misses = 3230
L2_total_cache_miss_rate = 0.0571
L2_total_cache_pending_hits = 5084
L2_total_cache_reservation_fails = 19523
L2_total_cache_breakdown:
	L2_cache_stats_breakdown[GLOBAL_ACC_R][HIT] = 348
	L2_cache_stats_breakdown[GLOBAL_ACC_R][HIT_RESERVED] = 5
	L2_cache_stats_breakdown[GLOBAL_ACC_R][MISS] = 1537
	L2_cache_stats_breakdown[CONST_ACC_R][HIT] = 11
	L2_cache_stats_breakdown[CONST_ACC_R][HIT_RESERVED] = 3
	L2_cache_stats_breakdown[CONST_ACC_R][MISS] = 1
	L2_cache_stats_breakdown[CONST_ACC_R][RESERVATION_FAIL] = 109
	L2_cache_stats_breakdown[GLOBAL_ACC_W][HIT] = 18432
	L2_cache_stats_breakdown[GLOBAL_ACC_W][HIT_RESERVED] = 4608
	L2_cache_stats_breakdown[GLOBAL_ACC_W][MISS] = 1536
	L2_cache_stats_breakdown[GLOBAL_ACC_W][RESERVATION_FAIL] = 4970
	L2_cache_stats_breakdown[INST_ACC_R][HIT] = 29484
	L2_cache_stats_breakdown[INST_ACC_R][HIT_RESERVED] = 468
	L2_cache_stats_breakdown[INST_ACC_R][MISS] = 156
	L2_cache_stats_breakdown[INST_ACC_R][RESERVATION_FAIL] = 14444
L2_cache_data_port_util = 0.023
L2_cache_fill_port_util = 0.002

icnt_total_pkts_mem_to_simt=184611
icnt_total_pkts_simt_to_mem=81165
LD_mem_lat_dist  0 0 0 0 0 0 0 0 0 0 0 0 0 0 0 0 0 0 0 0 0 0 0 0 0 0 0
ST_mem_lat_dist  0 0 0 0 0 0 0 0 0 0 0 0 0 0 0 0 0 0 0 0 0 0 0 0 0 0 0
----------------------------Interconnect-DETAILS--------------------------------
Class 0:
Packet latency average = 15.3442
	minimum = 6
	maximum = 248
Network latency average = 11.6586
	minimum = 6
	maximum = 201
Slowest packet = 6277
Flit latency average = 9.414
	minimum = 6
	maximum = 200
Slowest flit = 17614
Fragmentation average = 0
	minimum = 0
	maximum = 0
Injected packet rate average = 0.00832349
	minimum = 0.00700743 (at node 7)
	maximum = 0.009839 (at node 15)
Accepted packet rate average = 0.00832349
	minimum = 0.00700743 (at node 7)
	maximum = 0.009839 (at node 15)
Injected flit rate average = 0.0195461
	minimum = 0.0100574 (at node 7)
	maximum = 0.0328688 (at node 15)
Accepted flit rate average= 0.0195461
	minimum = 0.0129863 (at node 18)
	maximum = 0.0247355 (at node 6)
Injected packet length average = 2.3483
Accepted packet length average = 2.3483
Total in-flight flits = 0 (0 measured)
====== Overall Traffic Statistics ======
====== Traffic class 0 ======
Packet latency average = 15.3442 (1 samples)
	minimum = 6 (1 samples)
	maximum = 248 (1 samples)
Network latency average = 11.6586 (1 samples)
	minimum = 6 (1 samples)
	maximum = 201 (1 samples)
Flit latency average = 9.414 (1 samples)
	minimum = 6 (1 samples)
	maximum = 200 (1 samples)
Fragmentation average = 0 (1 samples)
	minimum = 0 (1 samples)
	maximum = 0 (1 samples)
Injected packet rate average = 0.00832349 (1 samples)
	minimum = 0.00700743 (1 samples)
	maximum = 0.009839 (1 samples)
Accepted packet rate average = 0.00832349 (1 samples)
	minimum = 0.00700743 (1 samples)
	maximum = 0.009839 (1 samples)
Injected flit rate average = 0.0195461 (1 samples)
	minimum = 0.0100574 (1 samples)
	maximum = 0.0328688 (1 samples)
Accepted flit rate average = 0.0195461 (1 samples)
	minimum = 0.0129863 (1 samples)
	maximum = 0.0247355 (1 samples)
Injected packet size average = 2.3483 (1 samples)
Accepted packet size average = 2.3483 (1 samples)
Hops average = 1 (1 samples)
----------------------------END-of-Interconnect-DETAILS-------------------------


gpgpu_simulation_time = 0 days, 0 hrs, 50 min, 9 sec (3009 sec)
gpgpu_simulation_rate = 41784 (inst/sec)
gpgpu_simulation_rate = 167 (cycle/sec)
GPGPU-Sim: synchronize waiting for inactive GPU simulation
GPGPU-Sim API: Stream Manager State
GPGPU-Sim: detected inactive GPU simulation thread

== GPU Timing ==
GPU init                 : 0.010000
Host input buffer alloc  : 0.010000
-----
Host output buffer alloc : 0.003000
GPU memory alloc         : 0.003000
Data copy in             : 26.160999
Kernel execution         : 3005621.250000
Data copy out            : 51.698002
Last hasing stage        : 0.000000
GPU Proc. Time (gpu init and input alloc are not included):  3005699.250000 

== CPU Execution Context ==
Threads       : 128
Blocks        : 384
Total Threads : 49152
Total Size    : 196656
Chunk Size    : 52
Padding       : 0

CPU Processing time(ms):    64.917999 

Output size: 196608
Test PASSED
CPU GPU
FD FD
DD DD
2 2
F9 F9
