

        *** GPGPU-Sim Simulator Version 3.2.2  [build 0] ***


GPGPU-Sim PTX: simulation mode 0 (can change with PTX_SIM_MODE_FUNC environment variable:
               1=functional simulation only, 0=detailed performance simulator)
GPGPU-Sim: Configuration options:

-network_mode                           1 # Interconnection network mode
-inter_config_file   config_fermi_islip.icnt # Interconnection network config file
-gpgpu_ptx_use_cuobjdump                    1 # Use cuobjdump to extract ptx and sass from binaries
-gpgpu_experimental_lib_support                    0 # Try to extract code from cuda libraries [Broken because of unknown cudaGetExportTable]
-gpgpu_ptx_convert_to_ptxplus                    0 # Convert SASS (native ISA) to ptxplus and run ptxplus
-gpgpu_ptx_force_max_capability                   20 # Force maximum compute capability
-gpgpu_ptx_inst_debug_to_file                    0 # Dump executed instructions' debug information to file
-gpgpu_ptx_inst_debug_file       inst_debug.txt # Executed instructions' debug output file
-gpgpu_ptx_inst_debug_thread_uid                    1 # Thread UID for executed instructions' debug output
-gpgpu_simd_model                       1 # 1 = post-dominator
-gpgpu_shader_core_pipeline          1536:256:32 # shader core pipeline config, i.e., {<nthread>:<warpsize>}
-gpgpu_tex_cache:l1  4:128:24,L:R:m:N:L,F:128:4,128:2 # per-shader L1 texture cache  (READ-ONLY) config  {<nsets>:<bsize>:<assoc>,<rep>:<wr>:<alloc>:<wr_alloc>,<mshr>:<N>:<merge>,<mq>:<rf>}
-gpgpu_const_cache:l1 64:64:2,L:R:f:N:L,A:2:32,4 # per-shader L1 constant memory cache  (READ-ONLY) config  {<nsets>:<bsize>:<assoc>,<rep>:<wr>:<alloc>:<wr_alloc>,<mshr>:<N>:<merge>,<mq>} 
-gpgpu_cache:il1     4:128:4,L:R:f:N:L,A:2:32,4 # shader L1 instruction cache config  {<nsets>:<bsize>:<assoc>,<rep>:<wr>:<alloc>:<wr_alloc>,<mshr>:<N>:<merge>,<mq>} 
-gpgpu_cache:dl1     32:128:4,L:L:m:N:H,A:32:8,8 # per-shader L1 data cache config  {<nsets>:<bsize>:<assoc>,<rep>:<wr>:<alloc>:<wr_alloc>,<mshr>:<N>:<merge>,<mq> | none}
-gpgpu_cache:dl1PrefL1                 none # per-shader L1 data cache config  {<nsets>:<bsize>:<assoc>,<rep>:<wr>:<alloc>:<wr_alloc>,<mshr>:<N>:<merge>,<mq> | none}
-gpgpu_cache:dl1PreShared                 none # per-shader L1 data cache config  {<nsets>:<bsize>:<assoc>,<rep>:<wr>:<alloc>:<wr_alloc>,<mshr>:<N>:<merge>,<mq> | none}
-gmem_skip_L1D                          0 # global memory access skip L1D cache (implements -Xptxas -dlcm=cg, default=no skip)
-gpgpu_perfect_mem                      0 # enable perfect memory mode (no cache miss)
-n_regfile_gating_group                    4 # group of lanes that should be read/written together)
-gpgpu_clock_gated_reg_file                    0 # enable clock gated reg file for power calculations
-gpgpu_clock_gated_lanes                    0 # enable clock gated lanes for power calculations
-gpgpu_shader_registers                32768 # Number of registers per shader core. Limits number of concurrent CTAs. (default 8192)
-gpgpu_shader_cta                       8 # Maximum number of concurrent CTAs in shader (default 8)
-gpgpu_num_cta_barriers                   16 # Maximum number of named barriers per CTA (default 16)
-gpgpu_n_clusters                      15 # number of processing clusters
-gpgpu_n_cores_per_cluster                    1 # number of simd cores per cluster
-gpgpu_n_cluster_ejection_buffer_size                    8 # number of packets in ejection buffer
-gpgpu_n_ldst_response_buffer_size                    2 # number of response packets in ld/st unit ejection buffer
-gpgpu_shmem_size                   16384 # Size of shared memory per shader core (default 16kB)
-gpgpu_shmem_size                   49152 # Size of shared memory per shader core (default 16kB)
-gpgpu_shmem_size_PrefL1                16384 # Size of shared memory per shader core (default 16kB)
-gpgpu_shmem_size_PrefShared                16384 # Size of shared memory per shader core (default 16kB)
-gpgpu_shmem_num_banks                   32 # Number of banks in the shared memory in each shader core (default 16)
-gpgpu_shmem_limited_broadcast                    0 # Limit shared memory to do one broadcast per cycle (default on)
-gpgpu_shmem_warp_parts                    1 # Number of portions a warp is divided into for shared memory bank conflict check 
-gpgpu_warpdistro_shader                   -1 # Specify which shader core to collect the warp size distribution from
-gpgpu_warp_issue_shader                    0 # Specify which shader core to collect the warp issue distribution from
-gpgpu_local_mem_map                    1 # Mapping from local memory space address to simulated GPU physical address space (default = enabled)
-gpgpu_num_reg_banks                   16 # Number of register banks (default = 8)
-gpgpu_reg_bank_use_warp_id                    0 # Use warp ID in mapping registers to banks (default = off)
-gpgpu_operand_collector_num_units_sp                    6 # number of collector units (default = 4)
-gpgpu_operand_collector_num_units_sfu                    8 # number of collector units (default = 4)
-gpgpu_operand_collector_num_units_mem                    2 # number of collector units (default = 2)
-gpgpu_operand_collector_num_units_gen                    0 # number of collector units (default = 0)
-gpgpu_operand_collector_num_in_ports_sp                    2 # number of collector unit in ports (default = 1)
-gpgpu_operand_collector_num_in_ports_sfu                    1 # number of collector unit in ports (default = 1)
-gpgpu_operand_collector_num_in_ports_mem                    1 # number of collector unit in ports (default = 1)
-gpgpu_operand_collector_num_in_ports_gen                    0 # number of collector unit in ports (default = 0)
-gpgpu_operand_collector_num_out_ports_sp                    2 # number of collector unit in ports (default = 1)
-gpgpu_operand_collector_num_out_ports_sfu                    1 # number of collector unit in ports (default = 1)
-gpgpu_operand_collector_num_out_ports_mem                    1 # number of collector unit in ports (default = 1)
-gpgpu_operand_collector_num_out_ports_gen                    0 # number of collector unit in ports (default = 0)
-gpgpu_coalesce_arch                   13 # Coalescing arch (default = 13, anything else is off for now)
-gpgpu_num_sched_per_core                    1 # Number of warp schedulers per core
-gpgpu_max_insn_issue_per_warp                    1 # Max number of instructions that can be issued per warp in one cycle by scheduler
-gpgpu_simt_core_sim_order                    1 # Select the simulation order of cores in a cluster (0=Fix, 1=Round-Robin)
-gpgpu_pipeline_widths        2,1,1,2,1,1,2 # Pipeline widths ID_OC_SP,ID_OC_SFU,ID_OC_MEM,OC_EX_SP,OC_EX_SFU,OC_EX_MEM,EX_WB
-gpgpu_num_sp_units                     2 # Number of SP units (default=1)
-gpgpu_num_sfu_units                    1 # Number of SF units (default=1)
-gpgpu_num_mem_units                    1 # Number if ldst units (default=1) WARNING: not hooked up to anything
-gpgpu_scheduler                      gto # Scheduler configuration: < lrr | gto | two_level_active > If two_level_active:<num_active_warps>:<inner_prioritization>:<outer_prioritization>For complete list of prioritization values see shader.h enum scheduler_prioritization_typeDefault: gto
-gpgpu_dram_scheduler                    1 # 0 = fifo, 1 = FR-FCFS (defaul)
-gpgpu_dram_partition_queues              8:8:8:8 # i2$:$2d:d2$:$2i
-l2_ideal                               0 # Use a ideal L2 cache that always hit
-gpgpu_cache:dl2     64:128:8,L:B:m:W:L,A:32:4,4:0,32 # unified banked L2 data cache config  {<nsets>:<bsize>:<assoc>,<rep>:<wr>:<alloc>:<wr_alloc>,<mshr>:<N>:<merge>,<mq>}
-gpgpu_cache:dl2_texture_only                    0 # L2 cache used for texture only
-gpgpu_n_mem                            6 # number of memory modules (e.g. memory controllers) in gpu
-gpgpu_n_sub_partition_per_mchannel                    2 # number of memory subpartition in each memory module
-gpgpu_n_mem_per_ctrlr                    2 # number of memory chips per memory controller
-gpgpu_memlatency_stat                   14 # track and display latency statistics 0x2 enables MC, 0x4 enables queue logs
-gpgpu_frfcfs_dram_sched_queue_size                   16 # 0 = unlimited (default); # entries per chip
-gpgpu_dram_return_queue_size                  116 # 0 = unlimited (default); # entries per chip
-gpgpu_dram_buswidth                    4 # default = 4 bytes (8 bytes per cycle at DDR)
-gpgpu_dram_burst_length                    8 # Burst length of each DRAM request (default = 4 data bus cycle)
-dram_data_command_freq_ratio                    4 # Frequency ratio between DRAM data bus and command bus (default = 2 times, i.e. DDR)
-gpgpu_dram_timing_opt nbk=16:CCD=2:RRD=6:RCD=12:RAS=28:RP=12:RC=40: CL=12:WL=4:CDLR=5:WR=12:nbkgrp=4:CCDL=3:RTPL=2 # DRAM timing parameters = {nbk:tCCD:tRRD:tRCD:tRAS:tRP:tRC:CL:WL:tCDLR:tWR:nbkgrp:tCCDL:tRTPL}
-rop_latency                          120 # ROP queue latency (default 85)
-dram_latency                         100 # DRAM latency (default 30)
-gpgpu_mem_addr_mapping dramid@8;00000000.00000000.00000000.00000000.0000RRRR.RRRRRRRR.BBBCCCCB.CCSSSSSS # mapping memory address to dram model {dramid@<start bit>;<memory address map>}
-gpgpu_mem_addr_test                    0 # run sweep test to check address mapping for aliased address
-gpgpu_mem_address_mask                    1 # 0 = old addressing mask, 1 = new addressing mask, 2 = new add. mask + flipped bank sel and chip sel bits
-gpuwattch_xml_file  gpuwattch_gtx480.xml # GPUWattch XML file
-power_simulation_enabled                    1 # Turn on power simulator (1=On, 0=Off)
-power_per_cycle_dump                    0 # Dump detailed power output each cycle
-power_trace_enabled                    0 # produce a file for the power trace (1=On, 0=Off)
-power_trace_zlevel                     6 # Compression level of the power trace output log (0=no comp, 9=highest)
-steady_power_levels_enabled                    0 # produce a file for the steady power levels (1=On, 0=Off)
-steady_state_definition                  8:4 # allowed deviation:number of samples
-gpgpu_max_cycle                        0 # terminates gpu simulation early (0 = no limit)
-gpgpu_max_insn                         0 # terminates gpu simulation early (0 = no limit)
-gpgpu_max_cta                          0 # terminates gpu simulation early (0 = no limit)
-gpgpu_runtime_stat                   500 # display runtime statistics such as dram utilization {<freq>:<flag>}
-liveness_message_freq                    1 # Minimum number of seconds between simulation liveness messages (0 = always print)
-gpgpu_flush_l1_cache                    0 # Flush L1 cache at the end of each kernel call
-gpgpu_flush_l2_cache                    0 # Flush L2 cache at the end of each kernel call
-gpgpu_deadlock_detect                    1 # Stop the simulation at deadlock (1=on (default), 0=off)
-gpgpu_ptx_instruction_classification                    0 # if enabled will classify ptx instruction types per kernel (Max 255 kernels now)
-gpgpu_ptx_sim_mode                     0 # Select between Performance (default) or Functional simulation (1)
-gpgpu_clock_domains 700.0:700.0:700.0:924.0 # Clock Domain Frequencies in MhZ {<Core Clock>:<ICNT Clock>:<L2 Clock>:<DRAM Clock>}
-gpgpu_max_concurrent_kernel                    8 # maximum kernels that can run concurrently on GPU
-gpgpu_cflog_interval                    0 # Interval between each snapshot in control flow logger
-visualizer_enabled                     0 # Turn on visualizer output (1=On, 0=Off)
-visualizer_outputfile                 NULL # Specifies the output log file for visualizer
-visualizer_zlevel                      6 # Compression level of the visualizer output log (0=no comp, 9=highest)
-trace_enabled                          0 # Turn on traces
-trace_components                    none # comma seperated list of traces to enable. Complete list found in trace_streams.tup. Default none
-trace_sampling_core                    0 # The core which is printed using CORE_DPRINTF. Default 0
-trace_sampling_memory_partition                   -1 # The memory partition which is printed using MEMPART_DPRINTF. Default -1 (i.e. all)
-enable_ptx_file_line_stats                    1 # Turn on PTX source line statistic profiling. (1 = On)
-ptx_line_stats_filename gpgpu_inst_stats.txt # Output file for PTX source line statistics.
-save_embedded_ptx                      0 # saves ptx files embedded in binary as <n>.ptx
-keep                                   0 # keep intermediate files created by GPGPU-Sim when interfacing with external programs
-gpgpu_ptx_save_converted_ptxplus                    0 # Saved converted ptxplus to a file
-ptx_opcode_latency_int         4,13,4,5,145 # Opcode latencies for integers <ADD,MAX,MUL,MAD,DIV>Default 1,1,19,25,145
-ptx_opcode_latency_fp          4,13,4,5,39 # Opcode latencies for single precision floating points <ADD,MAX,MUL,MAD,DIV>Default 1,1,1,1,30
-ptx_opcode_latency_dp         8,19,8,8,330 # Opcode latencies for double precision floating points <ADD,MAX,MUL,MAD,DIV>Default 8,8,8,8,335
-ptx_opcode_initiation_int            1,2,2,1,8 # Opcode initiation intervals for integers <ADD,MAX,MUL,MAD,DIV>Default 1,1,4,4,32
-ptx_opcode_initiation_fp            1,2,1,1,4 # Opcode initiation intervals for single precision floating points <ADD,MAX,MUL,MAD,DIV>Default 1,1,1,1,5
-ptx_opcode_initiation_dp         8,16,8,8,130 # Opcode initiation intervals for double precision floating points <ADD,MAX,MUL,MAD,DIV>Default 8,8,8,8,130
ESHA: SIMD Width was found to be : 32
DRAM Timing Options:
nbk                                    16 # number of banks
CCD                                     2 # column to column delay
RRD                                     6 # minimal delay between activation of rows in different banks
RCD                                    12 # row to column delay
RAS                                    28 # time needed to activate row
RP                                     12 # time needed to precharge (deactivate) row
RC                                     40 # row cycle time
CDLR                                    5 # switching from write to read (changes tWTR)
WR                                     12 # last data-in to row precharge
CL                                     12 # CAS latency
WL                                      4 # Write latency
nbkgrp                                  4 # number of bank groups
CCDL                                    3 # column to column delay between accesses to different bank groups
RTPL                                    2 # read to precharge delay between accesses to different bank groups
Total number of memory sub partition = 12
addr_dec_mask[CHIP]  = 0000000000000000 	high:64 low:0
addr_dec_mask[BK]    = 000000000000e100 	high:16 low:8
addr_dec_mask[ROW]   = 000000000fff0000 	high:28 low:16
addr_dec_mask[COL]   = 0000000000001eff 	high:13 low:0
addr_dec_mask[BURST] = 000000000000003f 	high:6 low:0
sub_partition_id_mask = 0000000000000100
GPGPU-Sim uArch: clock freqs: 700000000.000000:700000000.000000:700000000.000000:924000000.000000
GPGPU-Sim uArch: clock periods: 0.00000000142857142857:0.00000000142857142857:0.00000000142857142857:0.00000000108225108225
ESHA_CHANGED: in shader config simd is  32 
*** Initializing Memory Statistics ***
GPGPU-Sim uArch: interconnect node map (shaderID+MemID to icntID)
GPGPU-Sim uArch: Memory nodes ID start from index: 15
GPGPU-Sim uArch:    0   1   2   3   4
GPGPU-Sim uArch:    5   6   7   8   9
GPGPU-Sim uArch:   10  11  12  13  14
GPGPU-Sim uArch:   15  16  17  18  19
GPGPU-Sim uArch:   20  21  22  23  24
GPGPU-Sim uArch:   25  26
GPGPU-Sim uArch: interconnect node reverse map (icntID to shaderID+MemID)
GPGPU-Sim uArch: Memory nodes start from ID: 15
GPGPU-Sim uArch:    0   1   2   3   4
GPGPU-Sim uArch:    5   6   7   8   9
GPGPU-Sim uArch:   10  11  12  13  14
GPGPU-Sim uArch:   15  16  17  18  19
GPGPU-Sim uArch:   20  21  22  23  24
GPGPU-Sim uArch:   25  26
185d153370a1c7baba053f5ed71cf285  /home/kishore/project_source/gpu_class_proj/gpgpusim-benchmarks-master/bin/release/STO
GPGPU-Sim uArch: performance model initialization complete.
GPGPU-Sim PTX: __cudaRegisterFatBinary, fat_cubin_handle = 1, filename=main.cu
self exe links to: /home/kishore/project_source/gpu_class_proj/gpgpusim-benchmarks-master/bin/release/STO
Running md5sum using "md5sum /home/kishore/project_source/gpu_class_proj/gpgpusim-benchmarks-master/bin/release/STO "
Running cuobjdump using "$CUDA_INSTALL_PATH/bin/cuobjdump -ptx -elf -sass /home/kishore/project_source/gpu_class_proj/gpgpusim-benchmarks-master/bin/release/STO > _cuobjdump_complete_output_ZM9398"
Parsing file _cuobjdump_complete_output_ZM9398
######### cuobjdump parser ########
## Adding new section PTX
Adding ptx filename: _cuobjdump_1.ptx
Adding arch: sm_10
Adding identifier: main.cu
## Adding new section ELF
Adding arch: sm_10
Adding identifier: main.cu
## Adding new section ELF
Adding arch: sm_20
Adding identifier: main.cu
## Adding new section PTX
Adding ptx filename: _cuobjdump_2.ptx
Adding arch: sm_20
Adding identifier: main.cu
## Adding new section PTX
Adding ptx filename: _cuobjdump_3.ptx
Adding arch: sm_10
Adding identifier: storeGPU.cu
## Adding new section ELF
Adding arch: sm_10
Adding identifier: storeGPU.cu
## Adding new section ELF
Adding arch: sm_20
Adding identifier: storeGPU.cu
## Adding new section PTX
Adding ptx filename: _cuobjdump_4.ptx
Adding arch: sm_20
Adding identifier: storeGPU.cu
Done parsing!!!
GPGPU-Sim PTX: __cudaRegisterFatBinary, fat_cubin_handle = 2, filename=storeGPU.cu
GPGPU-Sim PTX: __cudaRegisterFunction _Z12sha1_overlapPhiiiiS_ : hostFun 0x0x407f90, fat_cubin_handle = 2
GPGPU-Sim PTX: allocating stack frame region for .param "__cudaretf__Z14macroRFunctioniPj" from 0x0 to 0x8
GPGPU-Sim PTX: allocating stack frame region for .param "__cudaparmf1__Z14macroRFunctioniPj" from 0x8 to 0xc
GPGPU-Sim PTX: allocating stack frame region for .param "__cudaparmf2__Z14macroRFunctioniPj" from 0xc to 0x14
GPGPU-Sim PTX: instruction assembly for function '_Z14macroRFunctioniPj'...   done.
GPGPU-Sim PTX: finding reconvergence points for '_Z14macroRFunctioniPj'...
GPGPU-Sim PTX: Finding dominators for '_Z14macroRFunctioniPj'...
GPGPU-Sim PTX: Finding immediate dominators for '_Z14macroRFunctioniPj'...
GPGPU-Sim PTX: Finding postdominators for '_Z14macroRFunctioniPj'...
GPGPU-Sim PTX: Finding immediate postdominators for '_Z14macroRFunctioniPj'...
GPGPU-Sim PTX: pre-decoding instructions for '_Z14macroRFunctioniPj'...
GPGPU-Sim PTX: reconvergence points for _Z14macroRFunctioniPj...
GPGPU-Sim PTX: ... end of reconvergence points for _Z14macroRFunctioniPj
GPGPU-Sim PTX: ... done pre-decoding instructions for '_Z14macroRFunctioniPj'.
GPGPU-Sim PTX: allocating shared region for "__cuda___cuda_local_var_36043_40_non_const_sharedMemory32" from 0x0 to 0x3f80 (shared memory space)
GPGPU-Sim PTX: instruction assembly for function '_Z3md5PhiiiS_'...   done.
GPGPU-Sim PTX: finding reconvergence points for '_Z3md5PhiiiS_'...
GPGPU-Sim PTX: Finding dominators for '_Z3md5PhiiiS_'...
GPGPU-Sim PTX: Finding immediate dominators for '_Z3md5PhiiiS_'...
GPGPU-Sim PTX: Finding postdominators for '_Z3md5PhiiiS_'...
GPGPU-Sim PTX: Finding immediate postdominators for '_Z3md5PhiiiS_'...
GPGPU-Sim PTX: pre-decoding instructions for '_Z3md5PhiiiS_'...
GPGPU-Sim PTX: reconvergence points for _Z3md5PhiiiS_...
GPGPU-Sim PTX:  1 (potential) branch divergence @  PC=0x190 (_2.ptx:127) @%p1 bra $Lt_1_4866;
GPGPU-Sim PTX:    immediate post dominator      @  PC=0x21f0 (_2.ptx:1283) exit;
GPGPU-Sim PTX:  2 (potential) branch divergence @  PC=0x198 (_2.ptx:128) bra.uni $LBB20__Z3md5PhiiiS_;
GPGPU-Sim PTX:    immediate post dominator      @  PC=0x21f0 (_2.ptx:1283) exit;
GPGPU-Sim PTX:  3 (potential) branch divergence @  PC=0x1f0 (_2.ptx:141) @%p3 bra $Lt_1_5634;
GPGPU-Sim PTX:    immediate post dominator      @  PC=0x290 (_2.ptx:167) shr.s32 %r23, %r15, 31;
GPGPU-Sim PTX:  4 (potential) branch divergence @  PC=0x200 (_2.ptx:143) @!%p2 bra $Lt_1_5378;
GPGPU-Sim PTX:    immediate post dominator      @  PC=0x290 (_2.ptx:167) shr.s32 %r23, %r15, 31;
GPGPU-Sim PTX:  5 (potential) branch divergence @  PC=0x278 (_2.ptx:161) @%p4 bra $Lt_1_6402;
GPGPU-Sim PTX:    immediate post dominator      @  PC=0x280 (_2.ptx:162) bra.uni $Lt_1_5378;
GPGPU-Sim PTX:  6 (potential) branch divergence @  PC=0x280 (_2.ptx:162) bra.uni $Lt_1_5378;
GPGPU-Sim PTX:    immediate post dominator      @  PC=0x290 (_2.ptx:167) shr.s32 %r23, %r15, 31;
GPGPU-Sim PTX:  7 (potential) branch divergence @  PC=0x2d0 (_2.ptx:175) @%p5 bra $Lt_1_8706;
GPGPU-Sim PTX:    immediate post dominator      @  PC=0x2198 (_2.ptx:1270) mul.lo.s32 %r234, %r5, 4;
GPGPU-Sim PTX:  8 (potential) branch divergence @  PC=0x4e8 (_2.ptx:257) @%p6 bra $Lt_1_7938;
GPGPU-Sim PTX:    immediate post dominator      @  PC=0x560 (_2.ptx:281) ld.shared.u8 %r69, [%rd20+0];
GPGPU-Sim PTX:  9 (potential) branch divergence @  PC=0x520 (_2.ptx:267) bra.uni $Lt_1_7682;
GPGPU-Sim PTX:    immediate post dominator      @  PC=0x560 (_2.ptx:281) ld.shared.u8 %r69, [%rd20+0];
GPGPU-Sim PTX: 10 (potential) branch divergence @  PC=0x2180 (_2.ptx:1264) @%p7 bra $Lt_1_7426;
GPGPU-Sim PTX:    immediate post dominator      @  PC=0x2188 (_2.ptx:1265) bra.uni $Lt_1_6914;
GPGPU-Sim PTX: 11 (potential) branch divergence @  PC=0x2188 (_2.ptx:1265) bra.uni $Lt_1_6914;
GPGPU-Sim PTX:    immediate post dominator      @  PC=0x2198 (_2.ptx:1270) mul.lo.s32 %r234, %r5, 4;
GPGPU-Sim PTX: ... end of reconvergence points for _Z3md5PhiiiS_
GPGPU-Sim PTX: ... done pre-decoding instructions for '_Z3md5PhiiiS_'.
GPGPU-Sim PTX: allocating shared region for "__cuda___cuda_local_var_36078_40_non_const_sharedMemory16320" from 0x0 to 0x3f80 (shared memory space)
GPGPU-Sim PTX: instruction assembly for function '_Z11md5_overlapPhiiiiS_'...   done.
GPGPU-Sim PTX: finding reconvergence points for '_Z11md5_overlapPhiiiiS_'...
GPGPU-Sim PTX: Finding dominators for '_Z11md5_overlapPhiiiiS_'...
GPGPU-Sim PTX: Finding immediate dominators for '_Z11md5_overlapPhiiiiS_'...
GPGPU-Sim PTX: Finding postdominators for '_Z11md5_overlapPhiiiiS_'...
GPGPU-Sim PTX: Finding immediate postdominators for '_Z11md5_overlapPhiiiiS_'...
GPGPU-Sim PTX: pre-decoding instructions for '_Z11md5_overlapPhiiiiS_'...
GPGPU-Sim PTX: reconvergence points for _Z11md5_overlapPhiiiiS_...
GPGPU-Sim PTX:  1 (potential) branch divergence @  PC=0x2230 (_2.ptx:1308) @%p1 bra $Lt_2_5634;
GPGPU-Sim PTX:    immediate post dominator      @  PC=0x43e8 (_2.ptx:2510) exit;
GPGPU-Sim PTX:  2 (potential) branch divergence @  PC=0x2238 (_2.ptx:1309) bra.uni $LBB23__Z11md5_overlapPhiiiiS_;
GPGPU-Sim PTX:    immediate post dominator      @  PC=0x43e8 (_2.ptx:2510) exit;
GPGPU-Sim PTX:  3 (potential) branch divergence @  PC=0x22b0 (_2.ptx:1326) @%p3 bra $Lt_2_9730;
GPGPU-Sim PTX:    immediate post dominator      @  PC=0x4390 (_2.ptx:2497) mul.lo.s32 %r260, %r5, 4;
GPGPU-Sim PTX:  4 (potential) branch divergence @  PC=0x2440 (_2.ptx:1378) @%p4 bra $Lt_2_7170;
GPGPU-Sim PTX:    immediate post dominator      @  PC=0x2768 (_2.ptx:1510) ld.shared.u8 %r95, [%rd15+0];
GPGPU-Sim PTX:  5 (potential) branch divergence @  PC=0x2488 (_2.ptx:1387) @%p5 bra $Lt_2_9986;
GPGPU-Sim PTX:    immediate post dominator      @  PC=0x2520 (_2.ptx:1411) mov.s32 %r62, 13;
GPGPU-Sim PTX:  6 (potential) branch divergence @  PC=0x2500 (_2.ptx:1405) @%p6 bra $Lt_2_7938;
GPGPU-Sim PTX:    immediate post dominator      @  PC=0x2508 (_2.ptx:1406) mov.s32 %r61, %r52;
GPGPU-Sim PTX:  7 (potential) branch divergence @  PC=0x2510 (_2.ptx:1407) bra.uni $Lt_2_7426;
GPGPU-Sim PTX:    immediate post dominator      @  PC=0x2520 (_2.ptx:1411) mov.s32 %r62, 13;
GPGPU-Sim PTX:  8 (potential) branch divergence @  PC=0x2540 (_2.ptx:1415) @%p7 bra $Lt_2_8450;
GPGPU-Sim PTX:    immediate post dominator      @  PC=0x25e0 (_2.ptx:1440) mov.u32 %r72, 128;
GPGPU-Sim PTX:  9 (potential) branch divergence @  PC=0x25d8 (_2.ptx:1437) @%p8 bra $Lt_2_8962;
GPGPU-Sim PTX:    immediate post dominator      @  PC=0x25e0 (_2.ptx:1440) mov.u32 %r72, 128;
GPGPU-Sim PTX: 10 (potential) branch divergence @  PC=0x2640 (_2.ptx:1454) bra.uni $Lt_2_6914;
GPGPU-Sim PTX:    immediate post dominator      @  PC=0x2768 (_2.ptx:1510) ld.shared.u8 %r95, [%rd15+0];
GPGPU-Sim PTX: 11 (potential) branch divergence @  PC=0x4378 (_2.ptx:2491) @%p9 bra $Lt_2_6658;
GPGPU-Sim PTX:    immediate post dominator      @  PC=0x4380 (_2.ptx:2492) bra.uni $Lt_2_6146;
GPGPU-Sim PTX: 12 (potential) branch divergence @  PC=0x4380 (_2.ptx:2492) bra.uni $Lt_2_6146;
GPGPU-Sim PTX:    immediate post dominator      @  PC=0x4390 (_2.ptx:2497) mul.lo.s32 %r260, %r5, 4;
GPGPU-Sim PTX: ... end of reconvergence points for _Z11md5_overlapPhiiiiS_
GPGPU-Sim PTX: ... done pre-decoding instructions for '_Z11md5_overlapPhiiiiS_'.
GPGPU-Sim PTX: allocating shared region for "__cuda___cuda_local_var_36930_40_non_const_sharedMemory32608" from 0x0 to 0x3f80 (shared memory space)
GPGPU-Sim PTX: instruction assembly for function '_Z4sha1PhiiiS_'...   done.
GPGPU-Sim PTX: finding reconvergence points for '_Z4sha1PhiiiS_'...
GPGPU-Sim PTX: Finding dominators for '_Z4sha1PhiiiS_'...
GPGPU-Sim PTX: Finding immediate dominators for '_Z4sha1PhiiiS_'...
GPGPU-Sim PTX: Finding postdominators for '_Z4sha1PhiiiS_'...
GPGPU-Sim PTX: Finding immediate postdominators for '_Z4sha1PhiiiS_'...
GPGPU-Sim PTX: pre-decoding instructions for '_Z4sha1PhiiiS_'...
GPGPU-Sim PTX: reconvergence points for _Z4sha1PhiiiS_...
GPGPU-Sim PTX:  1 (potential) branch divergence @  PC=0x4428 (_2.ptx:2534) @%p1 bra $Lt_3_4866;
GPGPU-Sim PTX:    immediate post dominator      @  PC=0x9018 (_2.ptx:5165) exit;
GPGPU-Sim PTX:  2 (potential) branch divergence @  PC=0x4430 (_2.ptx:2535) bra.uni $LBB20__Z4sha1PhiiiS_;
GPGPU-Sim PTX:    immediate post dominator      @  PC=0x9018 (_2.ptx:5165) exit;
GPGPU-Sim PTX:  3 (potential) branch divergence @  PC=0x4488 (_2.ptx:2548) @%p3 bra $Lt_3_5634;
GPGPU-Sim PTX:    immediate post dominator      @  PC=0x4528 (_2.ptx:2574) shr.u32 %r23, %r15, 6;
GPGPU-Sim PTX:  4 (potential) branch divergence @  PC=0x4498 (_2.ptx:2550) @!%p2 bra $Lt_3_5378;
GPGPU-Sim PTX:    immediate post dominator      @  PC=0x4528 (_2.ptx:2574) shr.u32 %r23, %r15, 6;
GPGPU-Sim PTX:  5 (potential) branch divergence @  PC=0x4510 (_2.ptx:2568) @%p4 bra $Lt_3_6402;
GPGPU-Sim PTX:    immediate post dominator      @  PC=0x4518 (_2.ptx:2569) bra.uni $Lt_3_5378;
GPGPU-Sim PTX:  6 (potential) branch divergence @  PC=0x4518 (_2.ptx:2569) bra.uni $Lt_3_5378;
GPGPU-Sim PTX:    immediate post dominator      @  PC=0x4528 (_2.ptx:2574) shr.u32 %r23, %r15, 6;
GPGPU-Sim PTX:  7 (potential) branch divergence @  PC=0x4548 (_2.ptx:2578) @%p5 bra $Lt_3_8706;
GPGPU-Sim PTX:    immediate post dominator      @  PC=0x8fc0 (_2.ptx:5152) mul.lo.s32 %r748, %r5, 4;
GPGPU-Sim PTX:  8 (potential) branch divergence @  PC=0x4730 (_2.ptx:2654) @%p6 bra $Lt_3_7938;
GPGPU-Sim PTX:    immediate post dominator      @  PC=0x4820 (_2.ptx:2693) ld.shared.u8 %r69, [%rd21+3];
GPGPU-Sim PTX:  9 (potential) branch divergence @  PC=0x47e0 (_2.ptx:2679) bra.uni $Lt_3_7682;
GPGPU-Sim PTX:    immediate post dominator      @  PC=0x4820 (_2.ptx:2693) ld.shared.u8 %r69, [%rd21+3];
GPGPU-Sim PTX: 10 (potential) branch divergence @  PC=0x8fa8 (_2.ptx:5146) @%p7 bra $Lt_3_7426;
GPGPU-Sim PTX:    immediate post dominator      @  PC=0x8fb0 (_2.ptx:5147) bra.uni $Lt_3_6914;
GPGPU-Sim PTX: 11 (potential) branch divergence @  PC=0x8fb0 (_2.ptx:5147) bra.uni $Lt_3_6914;
GPGPU-Sim PTX:    immediate post dominator      @  PC=0x8fc0 (_2.ptx:5152) mul.lo.s32 %r748, %r5, 4;
GPGPU-Sim PTX: ... end of reconvergence points for _Z4sha1PhiiiS_
GPGPU-Sim PTX: ... done pre-decoding instructions for '_Z4sha1PhiiiS_'.
GPGPU-Sim PTX: allocating shared region for "__cuda___cuda_local_var_36962_40_non_const_sharedMemory48896" from 0x0 to 0x3f80 (shared memory space)
GPGPU-Sim PTX: instruction assembly for function '_Z12sha1_overlapPhiiiiS_'...   done.
GPGPU-Sim PTX: finding reconvergence points for '_Z12sha1_overlapPhiiiiS_'...
GPGPU-Sim PTX: Finding dominators for '_Z12sha1_overlapPhiiiiS_'...
GPGPU-Sim PTX: Finding immediate dominators for '_Z12sha1_overlapPhiiiiS_'...
GPGPU-Sim PTX: Finding postdominators for '_Z12sha1_overlapPhiiiiS_'...
GPGPU-Sim PTX: Finding immediate postdominators for '_Z12sha1_overlapPhiiiiS_'...
GPGPU-Sim PTX: pre-decoding instructions for '_Z12sha1_overlapPhiiiiS_'...
GPGPU-Sim PTX: reconvergence points for _Z12sha1_overlapPhiiiiS_...
GPGPU-Sim PTX:  1 (potential) branch divergence @  PC=0x9058 (_2.ptx:5190) @%p1 bra $Lt_4_5634;
GPGPU-Sim PTX:    immediate post dominator      @  PC=0xde28 (_2.ptx:7884) exit;
GPGPU-Sim PTX:  2 (potential) branch divergence @  PC=0x9060 (_2.ptx:5191) bra.uni $LBB23__Z12sha1_overlapPhiiiiS_;
GPGPU-Sim PTX:    immediate post dominator      @  PC=0xde28 (_2.ptx:7884) exit;
GPGPU-Sim PTX:  3 (potential) branch divergence @  PC=0x90b8 (_2.ptx:5204) @%p3 bra $Lt_4_9730;
GPGPU-Sim PTX:    immediate post dominator      @  PC=0xddd0 (_2.ptx:7871) mul.lo.s32 %r783, %r5, 4;
GPGPU-Sim PTX:  4 (potential) branch divergence @  PC=0x9288 (_2.ptx:5264) @%p4 bra $Lt_4_7170;
GPGPU-Sim PTX:    immediate post dominator      @  PC=0x9628 (_2.ptx:5411) ld.shared.u8 %r101, [%rd15+3];
GPGPU-Sim PTX:  5 (potential) branch divergence @  PC=0x92d0 (_2.ptx:5273) @%p5 bra $Lt_4_9986;
GPGPU-Sim PTX:    immediate post dominator      @  PC=0x9368 (_2.ptx:5297) mov.s32 %r59, 13;
GPGPU-Sim PTX:  6 (potential) branch divergence @  PC=0x9348 (_2.ptx:5291) @%p6 bra $Lt_4_7938;
GPGPU-Sim PTX:    immediate post dominator      @  PC=0x9350 (_2.ptx:5292) mov.s32 %r58, %r49;
GPGPU-Sim PTX:  7 (potential) branch divergence @  PC=0x9358 (_2.ptx:5293) bra.uni $Lt_4_7426;
GPGPU-Sim PTX:    immediate post dominator      @  PC=0x9368 (_2.ptx:5297) mov.s32 %r59, 13;
GPGPU-Sim PTX:  8 (potential) branch divergence @  PC=0x9388 (_2.ptx:5301) @%p7 bra $Lt_4_8450;
GPGPU-Sim PTX:    immediate post dominator      @  PC=0x9428 (_2.ptx:5326) mov.u32 %r69, 128;
GPGPU-Sim PTX:  9 (potential) branch divergence @  PC=0x9420 (_2.ptx:5323) @%p8 bra $Lt_4_8962;
GPGPU-Sim PTX:    immediate post dominator      @  PC=0x9428 (_2.ptx:5326) mov.u32 %r69, 128;
GPGPU-Sim PTX: 10 (potential) branch divergence @  PC=0x9500 (_2.ptx:5355) bra.uni $Lt_4_6914;
GPGPU-Sim PTX:    immediate post dominator      @  PC=0x9628 (_2.ptx:5411) ld.shared.u8 %r101, [%rd15+3];
GPGPU-Sim PTX: 11 (potential) branch divergence @  PC=0xddb8 (_2.ptx:7865) @%p9 bra $Lt_4_6658;
GPGPU-Sim PTX:    immediate post dominator      @  PC=0xddc0 (_2.ptx:7866) bra.uni $Lt_4_6146;
GPGPU-Sim PTX: 12 (potential) branch divergence @  PC=0xddc0 (_2.ptx:7866) bra.uni $Lt_4_6146;
GPGPU-Sim PTX:    immediate post dominator      @  PC=0xddd0 (_2.ptx:7871) mul.lo.s32 %r783, %r5, 4;
GPGPU-Sim PTX: ... end of reconvergence points for _Z12sha1_overlapPhiiiiS_
GPGPU-Sim PTX: ... done pre-decoding instructions for '_Z12sha1_overlapPhiiiiS_'.
GPGPU-Sim PTX: allocating global region for "md5_padding" from 0x100 to 0x140 (global memory space)
GPGPU-Sim PTX: allocating global region for "sha1_padding" from 0x140 to 0x180 (global memory space)
GPGPU-Sim PTX: finished parsing EMBEDDED .ptx file _2.ptx
Adding _cuobjdump_4.ptx with cubin handle 2
GPGPU-Sim PTX: extracting embedded .ptx to temporary file "_ptx_6hksR6"
Running: cat _ptx_6hksR6 | sed 's/.version 1.5/.version 1.4/' | sed 's/, texmode_independent//' | sed 's/\(\.extern \.const\[1\] .b8 \w\+\)\[\]/\1\[1\]/' | sed 's/const\[.\]/const\[0\]/g' > _ptx2_faLTy4
GPGPU-Sim PTX: generating ptxinfo using "$CUDA_INSTALL_PATH/bin/ptxas --gpu-name=sm_20 -v _ptx2_faLTy4 --output-file  /dev/null 2> _ptx_6hksR6info"
GPGPU-Sim PTX: Kernel '_Z12sha1_overlapPhiiiiS_' : regs=47, lmem=0, smem=16256, cmem=80
GPGPU-Sim PTX: Kernel '_Z4sha1PhiiiS_' : regs=45, lmem=0, smem=16256, cmem=80
GPGPU-Sim PTX: Kernel '_Z11md5_overlapPhiiiiS_' : regs=42, lmem=0, smem=16256, cmem=80
GPGPU-Sim PTX: Kernel '_Z3md5PhiiiS_' : regs=42, lmem=0, smem=16256, cmem=80
GPGPU-Sim PTX: removing ptxinfo using "rm -f _ptx_6hksR6 _ptx2_faLTy4 _ptx_6hksR6info"
GPGPU-Sim PTX: loading globals with explicit initializers... 
GPGPU-Sim PTX:     initializing 'md5_padding' ...  wrote 64 bytes
GPGPU-Sim PTX:     initializing 'sha1_padding' ...  wrote 64 bytes
GPGPU-Sim PTX: finished loading globals (128 bytes total).
GPGPU-Sim PTX: loading constants with explicit initializers...  done.
GPGPU-Sim PTX: __cudaRegisterFunction _Z4sha1PhiiiS_ : hostFun 0x0x408050, fat_cubin_handle = 2
GPGPU-Sim PTX: __cudaRegisterFunction _Z11md5_overlapPhiiiiS_ : hostFun 0x0x408140, fat_cubin_handle = 2
GPGPU-Sim PTX: __cudaRegisterFunction _Z3md5PhiiiS_ : hostFun 0x0x408200, fat_cubin_handle = 2
GPGPU-Sim PTX: __cudaRegisterVar: hostVar = 0x6ad440; deviceAddress = md5_padding; deviceName = md5_padding
GPGPU-Sim PTX: __cudaRegisterVar: Registering const memory space of 64 bytes
GPGPU-Sim PTX registering global md5_padding hostVar to name mapping
GPGPU-Sim PTX: __cudaRegisterVar: hostVar = 0x6ad480; deviceAddress = sha1_padding; deviceName = sha1_padding
GPGPU-Sim PTX: __cudaRegisterVar: Registering const memory space of 64 bytes
GPGPU-Sim PTX registering global sha1_padding hostVar to name mapping
Shared Memory Enabled
Pinned Memory Enabled
Reduced Hash Size Enabled
Running SHA1 Overlap Test..
SHA1 Overlap Test


== GPU Execution Context ==
Threads       : 128
Blocks        : 384
Total Threads : 49152
Total size    : 196656
Chunk Size    : 52
Padding       : 0


GPGPU-Sim PTX: cudaLaunch for 0x0x407f90 (mode=performance simulation) on stream 0
GPGPU-Sim PTX: pushing kernel '_Z12sha1_overlapPhiiiiS_' to stream 0, gridDim= (384,1,1) blockDim = (128,1,1) 
kernel '_Z12sha1_overlapPhiiiiS_' transfer to GPU hardware scheduler
GPGPU-Sim uArch: Shader 1 bind to kernel 1 '_Z12sha1_overlapPhiiiiS_'
GPGPU-Sim uArch: CTA/core = 2, limited by: regs
GPGPU-Sim uArch: core:  1, cta: 0 initialized @(1,0)
GPGPU-Sim uArch: Shader 2 bind to kernel 1 '_Z12sha1_overlapPhiiiiS_'
GPGPU-Sim uArch: core:  2, cta: 0 initialized @(1,0)
GPGPU-Sim uArch: Shader 3 bind to kernel 1 '_Z12sha1_overlapPhiiiiS_'
GPGPU-Sim uArch: core:  3, cta: 0 initialized @(1,0)
GPGPU-Sim uArch: Shader 4 bind to kernel 1 '_Z12sha1_overlapPhiiiiS_'
GPGPU-Sim uArch: core:  4, cta: 0 initialized @(1,0)
GPGPU-Sim uArch: Shader 5 bind to kernel 1 '_Z12sha1_overlapPhiiiiS_'
GPGPU-Sim uArch: core:  5, cta: 0 initialized @(1,0)
GPGPU-Sim uArch: Shader 6 bind to kernel 1 '_Z12sha1_overlapPhiiiiS_'
GPGPU-Sim uArch: core:  6, cta: 0 initialized @(1,0)
GPGPU-Sim uArch: Shader 7 bind to kernel 1 '_Z12sha1_overlapPhiiiiS_'
GPGPU-Sim uArch: core:  7, cta: 0 initialized @(1,0)
GPGPU-Sim uArch: Shader 8 bind to kernel 1 '_Z12sha1_overlapPhiiiiS_'
GPGPU-Sim uArch: core:  8, cta: 0 initialized @(1,0)
GPGPU-Sim uArch: Shader 9 bind to kernel 1 '_Z12sha1_overlapPhiiiiS_'
GPGPU-Sim uArch: core:  9, cta: 0 initialized @(1,0)
GPGPU-Sim uArch: Shader 10 bind to kernel 1 '_Z12sha1_overlapPhiiiiS_'
GPGPU-Sim uArch: core: 10, cta: 0 initialized @(1,0)
GPGPU-Sim uArch: Shader 11 bind to kernel 1 '_Z12sha1_overlapPhiiiiS_'
GPGPU-Sim uArch: core: 11, cta: 0 initialized @(1,0)
GPGPU-Sim uArch: Shader 12 bind to kernel 1 '_Z12sha1_overlapPhiiiiS_'
GPGPU-Sim uArch: core: 12, cta: 0 initialized @(1,0)
GPGPU-Sim uArch: Shader 13 bind to kernel 1 '_Z12sha1_overlapPhiiiiS_'
GPGPU-Sim uArch: core: 13, cta: 0 initialized @(1,0)
GPGPU-Sim uArch: Shader 14 bind to kernel 1 '_Z12sha1_overlapPhiiiiS_'
GPGPU-Sim uArch: core: 14, cta: 0 initialized @(1,0)
GPGPU-Sim uArch: Shader 0 bind to kernel 1 '_Z12sha1_overlapPhiiiiS_'
GPGPU-Sim uArch: core:  0, cta: 0 initialized @(1,0)
GPGPU-Sim uArch: core:  1, cta: 1 initialized @(2,0)
GPGPU-Sim uArch: core:  2, cta: 1 initialized @(2,0)
GPGPU-Sim uArch: core:  3, cta: 1 initialized @(2,0)
GPGPU-Sim uArch: core:  4, cta: 1 initialized @(2,0)
GPGPU-Sim uArch: core:  5, cta: 1 initialized @(2,0)
GPGPU-Sim uArch: core:  6, cta: 1 initialized @(2,0)
GPGPU-Sim uArch: core:  7, cta: 1 initialized @(2,0)
GPGPU-Sim uArch: core:  8, cta: 1 initialized @(2,0)
GPGPU-Sim uArch: core:  9, cta: 1 initialized @(2,0)
GPGPU-Sim uArch: core: 10, cta: 1 initialized @(2,0)
GPGPU-Sim uArch: core: 11, cta: 1 initialized @(2,0)
GPGPU-Sim uArch: core: 12, cta: 1 initialized @(2,0)
GPGPU-Sim uArch: core: 13, cta: 1 initialized @(2,0)
GPGPU-Sim uArch: core: 14, cta: 1 initialized @(2,0)
GPGPU-Sim uArch: core:  0, cta: 1 initialized @(2,0)
GPGPU-Sim uArch: cycles simulated: 500  inst.: 19200 (ipc=38.4) sim_rate=19200 (inst/sec) elapsed = 0:0:00:01 / Tue May 12 23:40:59 2015
GPGPU-Sim PTX: 100000 instructions simulated : ctaid=(28,0,0) tid=(31,0,0)
GPGPU-Sim uArch: cycles simulated: 1000  inst.: 95232 (ipc=95.2) sim_rate=31744 (inst/sec) elapsed = 0:0:00:03 / Tue May 12 23:41:01 2015
GPGPU-Sim uArch: cycles simulated: 1500  inst.: 165120 (ipc=110.1) sim_rate=41280 (inst/sec) elapsed = 0:0:00:04 / Tue May 12 23:41:02 2015
GPGPU-Sim PTX: 200000 instructions simulated : ctaid=(9,0,0) tid=(63,0,0)
GPGPU-Sim uArch: cycles simulated: 2000  inst.: 286848 (ipc=143.4) sim_rate=57369 (inst/sec) elapsed = 0:0:00:05 / Tue May 12 23:41:03 2015
GPGPU-Sim PTX: 300000 instructions simulated : ctaid=(2,0,0) tid=(95,0,0)
GPGPU-Sim uArch: cycles simulated: 2500  inst.: 322560 (ipc=129.0) sim_rate=53760 (inst/sec) elapsed = 0:0:00:06 / Tue May 12 23:41:04 2015
GPGPU-Sim PTX: 400000 instructions simulated : ctaid=(23,0,0) tid=(127,0,0)
GPGPU-Sim uArch: cycles simulated: 3000  inst.: 391680 (ipc=130.6) sim_rate=55954 (inst/sec) elapsed = 0:0:00:07 / Tue May 12 23:41:05 2015
GPGPU-Sim PTX: 500000 instructions simulated : ctaid=(6,0,0) tid=(31,0,0)
GPGPU-Sim uArch: cycles simulated: 3500  inst.: 510080 (ipc=145.7) sim_rate=56675 (inst/sec) elapsed = 0:0:00:09 / Tue May 12 23:41:07 2015
GPGPU-Sim PTX: 600000 instructions simulated : ctaid=(4,0,0) tid=(63,0,0)
GPGPU-Sim PTX: 700000 instructions simulated : ctaid=(7,0,0) tid=(95,0,0)
GPGPU-Sim PTX: 800000 instructions simulated : ctaid=(25,0,0) tid=(127,0,0)
GPGPU-Sim uArch: cycles simulated: 4000  inst.: 829440 (ipc=207.4) sim_rate=69120 (inst/sec) elapsed = 0:0:00:12 / Tue May 12 23:41:10 2015
GPGPU-Sim PTX: 900000 instructions simulated : ctaid=(16,0,0) tid=(31,0,0)
GPGPU-Sim uArch: cycles simulated: 4500  inst.: 979200 (ipc=217.6) sim_rate=69942 (inst/sec) elapsed = 0:0:00:14 / Tue May 12 23:41:12 2015
GPGPU-Sim PTX: 1000000 instructions simulated : ctaid=(2,0,0) tid=(63,0,0)
GPGPU-Sim uArch: cycles simulated: 5000  inst.: 989824 (ipc=198.0) sim_rate=65988 (inst/sec) elapsed = 0:0:00:15 / Tue May 12 23:41:13 2015
GPGPU-Sim PTX: 1100000 instructions simulated : ctaid=(27,0,0) tid=(95,0,0)
GPGPU-Sim uArch: cycles simulated: 5500  inst.: 1086720 (ipc=197.6) sim_rate=67920 (inst/sec) elapsed = 0:0:00:16 / Tue May 12 23:41:14 2015
GPGPU-Sim uArch: cycles simulated: 6000  inst.: 1148160 (ipc=191.4) sim_rate=67538 (inst/sec) elapsed = 0:0:00:17 / Tue May 12 23:41:15 2015
GPGPU-Sim PTX: 1200000 instructions simulated : ctaid=(24,0,0) tid=(127,0,0)
GPGPU-Sim uArch: cycles simulated: 6500  inst.: 1244416 (ipc=191.4) sim_rate=69134 (inst/sec) elapsed = 0:0:00:18 / Tue May 12 23:41:16 2015
GPGPU-Sim PTX: 1300000 instructions simulated : ctaid=(15,0,0) tid=(31,0,0)
GPGPU-Sim uArch: cycles simulated: 7000  inst.: 1332480 (ipc=190.4) sim_rate=66624 (inst/sec) elapsed = 0:0:00:20 / Tue May 12 23:41:18 2015
GPGPU-Sim PTX: 1400000 instructions simulated : ctaid=(23,0,0) tid=(63,0,0)
GPGPU-Sim uArch: cycles simulated: 7500  inst.: 1393920 (ipc=185.9) sim_rate=66377 (inst/sec) elapsed = 0:0:00:21 / Tue May 12 23:41:19 2015
GPGPU-Sim PTX: 1500000 instructions simulated : ctaid=(11,0,0) tid=(95,0,0)
GPGPU-Sim uArch: cycles simulated: 8000  inst.: 1494784 (ipc=186.8) sim_rate=67944 (inst/sec) elapsed = 0:0:00:22 / Tue May 12 23:41:20 2015
GPGPU-Sim uArch: cycles simulated: 8500  inst.: 1578240 (ipc=185.7) sim_rate=68619 (inst/sec) elapsed = 0:0:00:23 / Tue May 12 23:41:21 2015
GPGPU-Sim PTX: 1600000 instructions simulated : ctaid=(18,0,0) tid=(127,0,0)
GPGPU-Sim uArch: cycles simulated: 9000  inst.: 1641856 (ipc=182.4) sim_rate=68410 (inst/sec) elapsed = 0:0:00:24 / Tue May 12 23:41:22 2015
GPGPU-Sim PTX: 1700000 instructions simulated : ctaid=(11,0,0) tid=(31,0,0)
GPGPU-Sim uArch: cycles simulated: 9500  inst.: 1762560 (ipc=185.5) sim_rate=67790 (inst/sec) elapsed = 0:0:00:26 / Tue May 12 23:41:24 2015
GPGPU-Sim PTX: 1800000 instructions simulated : ctaid=(15,0,0) tid=(63,0,0)
GPGPU-Sim uArch: cycles simulated: 10000  inst.: 1824256 (ipc=182.4) sim_rate=67565 (inst/sec) elapsed = 0:0:00:27 / Tue May 12 23:41:25 2015
GPGPU-Sim PTX: 1900000 instructions simulated : ctaid=(28,0,0) tid=(95,0,0)
GPGPU-Sim uArch: cycles simulated: 10500  inst.: 1944832 (ipc=185.2) sim_rate=69458 (inst/sec) elapsed = 0:0:00:28 / Tue May 12 23:41:26 2015
GPGPU-Sim PTX: 2000000 instructions simulated : ctaid=(22,0,0) tid=(127,0,0)
GPGPU-Sim uArch: cycles simulated: 11000  inst.: 2008320 (ipc=182.6) sim_rate=69252 (inst/sec) elapsed = 0:0:00:29 / Tue May 12 23:41:27 2015
GPGPU-Sim PTX: 2100000 instructions simulated : ctaid=(3,0,0) tid=(31,0,0)
GPGPU-Sim uArch: cycles simulated: 11500  inst.: 2112000 (ipc=183.7) sim_rate=68129 (inst/sec) elapsed = 0:0:00:31 / Tue May 12 23:41:29 2015
GPGPU-Sim PTX: 2200000 instructions simulated : ctaid=(28,0,0) tid=(63,0,0)
GPGPU-Sim uArch: cycles simulated: 12000  inst.: 2192640 (ipc=182.7) sim_rate=68520 (inst/sec) elapsed = 0:0:00:32 / Tue May 12 23:41:30 2015
GPGPU-Sim uArch: cycles simulated: 12500  inst.: 2272256 (ipc=181.8) sim_rate=68856 (inst/sec) elapsed = 0:0:00:33 / Tue May 12 23:41:31 2015
GPGPU-Sim PTX: 2300000 instructions simulated : ctaid=(4,0,0) tid=(95,0,0)
GPGPU-Sim uArch: cycles simulated: 13000  inst.: 2376960 (ipc=182.8) sim_rate=67913 (inst/sec) elapsed = 0:0:00:35 / Tue May 12 23:41:33 2015
GPGPU-Sim PTX: 2400000 instructions simulated : ctaid=(6,0,0) tid=(127,0,0)
GPGPU-Sim uArch: cycles simulated: 13500  inst.: 2442240 (ipc=180.9) sim_rate=67840 (inst/sec) elapsed = 0:0:00:36 / Tue May 12 23:41:34 2015
GPGPU-Sim PTX: 2500000 instructions simulated : ctaid=(26,0,0) tid=(31,0,0)
GPGPU-Sim uArch: cycles simulated: 14000  inst.: 2561280 (ipc=182.9) sim_rate=69223 (inst/sec) elapsed = 0:0:00:37 / Tue May 12 23:41:35 2015
GPGPU-Sim PTX: 2600000 instructions simulated : ctaid=(16,0,0) tid=(63,0,0)
GPGPU-Sim uArch: cycles simulated: 14500  inst.: 2622720 (ipc=180.9) sim_rate=69018 (inst/sec) elapsed = 0:0:00:38 / Tue May 12 23:41:36 2015
GPGPU-Sim PTX: 2700000 instructions simulated : ctaid=(18,0,0) tid=(95,0,0)
GPGPU-Sim uArch: cycles simulated: 15000  inst.: 2738816 (ipc=182.6) sim_rate=70226 (inst/sec) elapsed = 0:0:00:39 / Tue May 12 23:41:37 2015
GPGPU-Sim PTX: 2800000 instructions simulated : ctaid=(3,0,0) tid=(127,0,0)
GPGPU-Sim uArch: cycles simulated: 15500  inst.: 2807040 (ipc=181.1) sim_rate=70176 (inst/sec) elapsed = 0:0:00:40 / Tue May 12 23:41:38 2015
GPGPU-Sim PTX: 2900000 instructions simulated : ctaid=(18,0,0) tid=(31,0,0)
GPGPU-Sim uArch: cycles simulated: 16000  inst.: 2892160 (ipc=180.8) sim_rate=68860 (inst/sec) elapsed = 0:0:00:42 / Tue May 12 23:41:40 2015
GPGPU-Sim PTX: 3000000 instructions simulated : ctaid=(11,0,0) tid=(63,0,0)
GPGPU-Sim uArch: cycles simulated: 16500  inst.: 2991360 (ipc=181.3) sim_rate=69566 (inst/sec) elapsed = 0:0:00:43 / Tue May 12 23:41:41 2015
GPGPU-Sim uArch: cycles simulated: 17000  inst.: 3056000 (ipc=179.8) sim_rate=69454 (inst/sec) elapsed = 0:0:00:44 / Tue May 12 23:41:42 2015
GPGPU-Sim PTX: 3100000 instructions simulated : ctaid=(20,0,0) tid=(95,0,0)
GPGPU-Sim uArch: cycles simulated: 17500  inst.: 3175680 (ipc=181.5) sim_rate=70570 (inst/sec) elapsed = 0:0:00:45 / Tue May 12 23:41:43 2015
GPGPU-Sim PTX: 3200000 instructions simulated : ctaid=(19,0,0) tid=(127,0,0)
GPGPU-Sim uArch: cycles simulated: 18000  inst.: 3237120 (ipc=179.8) sim_rate=70372 (inst/sec) elapsed = 0:0:00:46 / Tue May 12 23:41:44 2015
GPGPU-Sim PTX: 3300000 instructions simulated : ctaid=(7,0,0) tid=(31,0,0)
GPGPU-Sim uArch: cycles simulated: 18500  inst.: 3354880 (ipc=181.3) sim_rate=69893 (inst/sec) elapsed = 0:0:00:48 / Tue May 12 23:41:46 2015
GPGPU-Sim PTX: 3400000 instructions simulated : ctaid=(5,0,0) tid=(63,0,0)
GPGPU-Sim uArch: cycles simulated: 19000  inst.: 3421440 (ipc=180.1) sim_rate=69825 (inst/sec) elapsed = 0:0:00:49 / Tue May 12 23:41:47 2015
GPGPU-Sim PTX: 3500000 instructions simulated : ctaid=(14,0,0) tid=(95,0,0)
GPGPU-Sim uArch: cycles simulated: 19500  inst.: 3529728 (ipc=181.0) sim_rate=70594 (inst/sec) elapsed = 0:0:00:50 / Tue May 12 23:41:48 2015
GPGPU-Sim PTX: 3600000 instructions simulated : ctaid=(12,0,0) tid=(127,0,0)
GPGPU-Sim uArch: cycles simulated: 20000  inst.: 3605760 (ipc=180.3) sim_rate=70701 (inst/sec) elapsed = 0:0:00:51 / Tue May 12 23:41:49 2015
GPGPU-Sim PTX: 3700000 instructions simulated : ctaid=(0,0,0) tid=(31,0,0)
GPGPU-Sim uArch: cycles simulated: 20500  inst.: 3692416 (ipc=180.1) sim_rate=71008 (inst/sec) elapsed = 0:0:00:52 / Tue May 12 23:41:50 2015
GPGPU-Sim PTX: 3800000 instructions simulated : ctaid=(25,0,0) tid=(63,0,0)
GPGPU-Sim uArch: cycles simulated: 21000  inst.: 3790080 (ipc=180.5) sim_rate=70186 (inst/sec) elapsed = 0:0:00:54 / Tue May 12 23:41:52 2015
GPGPU-Sim uArch: cycles simulated: 21500  inst.: 3863936 (ipc=179.7) sim_rate=70253 (inst/sec) elapsed = 0:0:00:55 / Tue May 12 23:41:53 2015
GPGPU-Sim PTX: 3900000 instructions simulated : ctaid=(8,0,0) tid=(95,0,0)
GPGPU-Sim uArch: cycles simulated: 22000  inst.: 3974400 (ipc=180.7) sim_rate=70971 (inst/sec) elapsed = 0:0:00:56 / Tue May 12 23:41:54 2015
GPGPU-Sim PTX: 4000000 instructions simulated : ctaid=(29,0,0) tid=(127,0,0)
GPGPU-Sim uArch: cycles simulated: 22500  inst.: 4041600 (ipc=179.6) sim_rate=70905 (inst/sec) elapsed = 0:0:00:57 / Tue May 12 23:41:55 2015
GPGPU-Sim PTX: 4100000 instructions simulated : ctaid=(27,0,0) tid=(31,0,0)
GPGPU-Sim uArch: cycles simulated: 23000  inst.: 4158720 (ipc=180.8) sim_rate=70486 (inst/sec) elapsed = 0:0:00:59 / Tue May 12 23:41:57 2015
GPGPU-Sim PTX: 4200000 instructions simulated : ctaid=(27,0,0) tid=(63,0,0)
GPGPU-Sim uArch: cycles simulated: 23500  inst.: 4220160 (ipc=179.6) sim_rate=70336 (inst/sec) elapsed = 0:0:01:00 / Tue May 12 23:41:58 2015
GPGPU-Sim PTX: 4300000 instructions simulated : ctaid=(0,0,0) tid=(95,0,0)
GPGPU-Sim uArch: cycles simulated: 24000  inst.: 4341504 (ipc=180.9) sim_rate=71172 (inst/sec) elapsed = 0:0:01:01 / Tue May 12 23:41:59 2015
GPGPU-Sim PTX: 4400000 instructions simulated : ctaid=(28,0,0) tid=(127,0,0)
GPGPU-Sim uArch: cycles simulated: 24500  inst.: 4404480 (ipc=179.8) sim_rate=71040 (inst/sec) elapsed = 0:0:01:02 / Tue May 12 23:42:00 2015
GPGPU-Sim PTX: 4500000 instructions simulated : ctaid=(29,0,0) tid=(31,0,0)
GPGPU-Sim uArch: cycles simulated: 25000  inst.: 4512128 (ipc=180.5) sim_rate=70502 (inst/sec) elapsed = 0:0:01:04 / Tue May 12 23:42:02 2015
GPGPU-Sim PTX: 4600000 instructions simulated : ctaid=(28,0,0) tid=(63,0,0)
GPGPU-Sim uArch: cycles simulated: 25500  inst.: 4588800 (ipc=180.0) sim_rate=70596 (inst/sec) elapsed = 0:0:01:05 / Tue May 12 23:42:03 2015
GPGPU-Sim uArch: cycles simulated: 26000  inst.: 4673536 (ipc=179.8) sim_rate=70811 (inst/sec) elapsed = 0:0:01:06 / Tue May 12 23:42:04 2015
GPGPU-Sim PTX: 4700000 instructions simulated : ctaid=(20,0,0) tid=(95,0,0)
GPGPU-Sim uArch: cycles simulated: 26500  inst.: 4773120 (ipc=180.1) sim_rate=71240 (inst/sec) elapsed = 0:0:01:07 / Tue May 12 23:42:05 2015
GPGPU-Sim PTX: 4800000 instructions simulated : ctaid=(3,0,0) tid=(127,0,0)
GPGPU-Sim uArch: cycles simulated: 27000  inst.: 4840704 (ipc=179.3) sim_rate=71186 (inst/sec) elapsed = 0:0:01:08 / Tue May 12 23:42:06 2015
GPGPU-Sim PTX: 4900000 instructions simulated : ctaid=(21,0,0) tid=(31,0,0)
GPGPU-Sim uArch: cycles simulated: 27500  inst.: 4957440 (ipc=180.3) sim_rate=71846 (inst/sec) elapsed = 0:0:01:09 / Tue May 12 23:42:07 2015
GPGPU-Sim PTX: 5000000 instructions simulated : ctaid=(4,0,0) tid=(63,0,0)
GPGPU-Sim uArch: cycles simulated: 28000  inst.: 5018880 (ipc=179.2) sim_rate=71698 (inst/sec) elapsed = 0:0:01:10 / Tue May 12 23:42:08 2015
GPGPU-Sim PTX: 5100000 instructions simulated : ctaid=(14,0,0) tid=(95,0,0)
GPGPU-Sim uArch: cycles simulated: 28500  inst.: 5140352 (ipc=180.4) sim_rate=71393 (inst/sec) elapsed = 0:0:01:12 / Tue May 12 23:42:10 2015
GPGPU-Sim PTX: 5200000 instructions simulated : ctaid=(12,0,0) tid=(127,0,0)
GPGPU-Sim uArch: cycles simulated: 29000  inst.: 5203200 (ipc=179.4) sim_rate=71276 (inst/sec) elapsed = 0:0:01:13 / Tue May 12 23:42:11 2015
GPGPU-Sim PTX: 5300000 instructions simulated : ctaid=(16,0,0) tid=(31,0,0)
GPGPU-Sim uArch: cycles simulated: 29500  inst.: 5311616 (ipc=180.1) sim_rate=71778 (inst/sec) elapsed = 0:0:01:14 / Tue May 12 23:42:12 2015
GPGPU-Sim PTX: 5400000 instructions simulated : ctaid=(13,0,0) tid=(63,0,0)
GPGPU-Sim uArch: cycles simulated: 30000  inst.: 5387520 (ipc=179.6) sim_rate=71833 (inst/sec) elapsed = 0:0:01:15 / Tue May 12 23:42:13 2015
GPGPU-Sim PTX: 5500000 instructions simulated : ctaid=(24,0,0) tid=(95,0,0)
GPGPU-Sim uArch: cycles simulated: 30500  inst.: 5480960 (ipc=179.7) sim_rate=71181 (inst/sec) elapsed = 0:0:01:17 / Tue May 12 23:42:15 2015
GPGPU-Sim uArch: cycles simulated: 31000  inst.: 5571840 (ipc=179.7) sim_rate=71433 (inst/sec) elapsed = 0:0:01:18 / Tue May 12 23:42:16 2015
GPGPU-Sim PTX: 5600000 instructions simulated : ctaid=(0,0,0) tid=(127,0,0)
GPGPU-Sim uArch: cycles simulated: 31500  inst.: 5642240 (ipc=179.1) sim_rate=71420 (inst/sec) elapsed = 0:0:01:19 / Tue May 12 23:42:17 2015
GPGPU-Sim PTX: 5700000 instructions simulated : ctaid=(12,0,0) tid=(31,0,0)
GPGPU-Sim uArch: cycles simulated: 32000  inst.: 5756160 (ipc=179.9) sim_rate=71952 (inst/sec) elapsed = 0:0:01:20 / Tue May 12 23:42:18 2015
GPGPU-Sim PTX: 5800000 instructions simulated : ctaid=(29,0,0) tid=(63,0,0)
GPGPU-Sim uArch: cycles simulated: 32500  inst.: 5819648 (ipc=179.1) sim_rate=71847 (inst/sec) elapsed = 0:0:01:21 / Tue May 12 23:42:19 2015
GPGPU-Sim PTX: 5900000 instructions simulated : ctaid=(14,0,0) tid=(95,0,0)
GPGPU-Sim uArch: cycles simulated: 33000  inst.: 5940352 (ipc=180.0) sim_rate=71570 (inst/sec) elapsed = 0:0:01:23 / Tue May 12 23:42:21 2015
GPGPU-Sim PTX: 6000000 instructions simulated : ctaid=(9,0,0) tid=(127,0,0)
GPGPU-Sim uArch: cycles simulated: 33500  inst.: 6001920 (ipc=179.2) sim_rate=71451 (inst/sec) elapsed = 0:0:01:24 / Tue May 12 23:42:22 2015
GPGPU-Sim PTX: 6100000 instructions simulated : ctaid=(1,0,0) tid=(31,0,0)
GPGPU-Sim uArch: cycles simulated: 34000  inst.: 6117376 (ipc=179.9) sim_rate=71969 (inst/sec) elapsed = 0:0:01:25 / Tue May 12 23:42:23 2015
GPGPU-Sim PTX: 6200000 instructions simulated : ctaid=(27,0,0) tid=(63,0,0)
GPGPU-Sim uArch: cycles simulated: 34500  inst.: 6186240 (ipc=179.3) sim_rate=71933 (inst/sec) elapsed = 0:0:01:26 / Tue May 12 23:42:24 2015
GPGPU-Sim uArch: cycles simulated: 35000  inst.: 6272640 (ipc=179.2) sim_rate=72099 (inst/sec) elapsed = 0:0:01:27 / Tue May 12 23:42:25 2015
GPGPU-Sim PTX: 6300000 instructions simulated : ctaid=(8,0,0) tid=(95,0,0)
GPGPU-Sim uArch: cycles simulated: 35500  inst.: 6370560 (ipc=179.5) sim_rate=71579 (inst/sec) elapsed = 0:0:01:29 / Tue May 12 23:42:27 2015
GPGPU-Sim PTX: 6400000 instructions simulated : ctaid=(7,0,0) tid=(127,0,0)
GPGPU-Sim uArch: cycles simulated: 36000  inst.: 6435072 (ipc=178.8) sim_rate=71500 (inst/sec) elapsed = 0:0:01:30 / Tue May 12 23:42:28 2015
GPGPU-Sim PTX: 6500000 instructions simulated : ctaid=(24,0,0) tid=(31,0,0)
GPGPU-Sim uArch: cycles simulated: 36500  inst.: 6554368 (ipc=179.6) sim_rate=72026 (inst/sec) elapsed = 0:0:01:31 / Tue May 12 23:42:29 2015
GPGPU-Sim PTX: 6600000 instructions simulated : ctaid=(3,0,0) tid=(63,0,0)
GPGPU-Sim uArch: cycles simulated: 37000  inst.: 6616320 (ipc=178.8) sim_rate=71916 (inst/sec) elapsed = 0:0:01:32 / Tue May 12 23:42:30 2015
GPGPU-Sim PTX: 6700000 instructions simulated : ctaid=(29,0,0) tid=(95,0,0)
GPGPU-Sim uArch: cycles simulated: 37500  inst.: 6731648 (ipc=179.5) sim_rate=72383 (inst/sec) elapsed = 0:0:01:33 / Tue May 12 23:42:31 2015
GPGPU-Sim PTX: 6800000 instructions simulated : ctaid=(23,0,0) tid=(127,0,0)
GPGPU-Sim uArch: cycles simulated: 38000  inst.: 6800640 (ipc=179.0) sim_rate=71585 (inst/sec) elapsed = 0:0:01:35 / Tue May 12 23:42:33 2015
GPGPU-Sim PTX: 6900000 instructions simulated : ctaid=(15,0,0) tid=(31,0,0)
GPGPU-Sim uArch: cycles simulated: 38500  inst.: 6886400 (ipc=178.9) sim_rate=71733 (inst/sec) elapsed = 0:0:01:36 / Tue May 12 23:42:34 2015
GPGPU-Sim PTX: 7000000 instructions simulated : ctaid=(13,0,0) tid=(63,0,0)
GPGPU-Sim uArch: cycles simulated: 39000  inst.: 6984960 (ipc=179.1) sim_rate=72009 (inst/sec) elapsed = 0:0:01:37 / Tue May 12 23:42:35 2015
GPGPU-Sim uArch: cycles simulated: 39500  inst.: 7049600 (ipc=178.5) sim_rate=71934 (inst/sec) elapsed = 0:0:01:38 / Tue May 12 23:42:36 2015
GPGPU-Sim PTX: 7100000 instructions simulated : ctaid=(23,0,0) tid=(95,0,0)
GPGPU-Sim uArch: cycles simulated: 40000  inst.: 7169280 (ipc=179.2) sim_rate=71692 (inst/sec) elapsed = 0:0:01:40 / Tue May 12 23:42:38 2015
GPGPU-Sim PTX: 7200000 instructions simulated : ctaid=(21,0,0) tid=(127,0,0)
GPGPU-Sim uArch: cycles simulated: 40500  inst.: 7230720 (ipc=178.5) sim_rate=71591 (inst/sec) elapsed = 0:0:01:41 / Tue May 12 23:42:39 2015
GPGPU-Sim PTX: 7300000 instructions simulated : ctaid=(27,0,0) tid=(31,0,0)
GPGPU-Sim uArch: cycles simulated: 41000  inst.: 7346432 (ipc=179.2) sim_rate=72023 (inst/sec) elapsed = 0:0:01:42 / Tue May 12 23:42:40 2015
GPGPU-Sim PTX: 7400000 instructions simulated : ctaid=(1,0,0) tid=(63,0,0)
GPGPU-Sim uArch: cycles simulated: 41500  inst.: 7415040 (ipc=178.7) sim_rate=71990 (inst/sec) elapsed = 0:0:01:43 / Tue May 12 23:42:41 2015
GPGPU-Sim PTX: 7500000 instructions simulated : ctaid=(3,0,0) tid=(95,0,0)
GPGPU-Sim uArch: cycles simulated: 42000  inst.: 7499520 (ipc=178.6) sim_rate=71424 (inst/sec) elapsed = 0:0:01:45 / Tue May 12 23:42:43 2015
GPGPU-Sim PTX: 7600000 instructions simulated : ctaid=(7,0,0) tid=(127,0,0)
GPGPU-Sim uArch: cycles simulated: 42500  inst.: 7599360 (ipc=178.8) sim_rate=71022 (inst/sec) elapsed = 0:0:01:47 / Tue May 12 23:42:45 2015
GPGPU-Sim uArch: cycles simulated: 43000  inst.: 7666304 (ipc=178.3) sim_rate=70984 (inst/sec) elapsed = 0:0:01:48 / Tue May 12 23:42:46 2015
GPGPU-Sim PTX: 7700000 instructions simulated : ctaid=(25,0,0) tid=(31,0,0)
GPGPU-Sim uArch: cycles simulated: 43500  inst.: 7783680 (ipc=178.9) sim_rate=71409 (inst/sec) elapsed = 0:0:01:49 / Tue May 12 23:42:47 2015
GPGPU-Sim PTX: 7800000 instructions simulated : ctaid=(0,0,0) tid=(63,0,0)
GPGPU-Sim uArch: cycles simulated: 44000  inst.: 7845376 (ipc=178.3) sim_rate=71321 (inst/sec) elapsed = 0:0:01:50 / Tue May 12 23:42:48 2015
GPGPU-Sim PTX: 7900000 instructions simulated : ctaid=(21,0,0) tid=(95,0,0)
GPGPU-Sim uArch: cycles simulated: 44500  inst.: 7967616 (ipc=179.0) sim_rate=71139 (inst/sec) elapsed = 0:0:01:52 / Tue May 12 23:42:50 2015
GPGPU-Sim PTX: 8000000 instructions simulated : ctaid=(3,0,0) tid=(127,0,0)
GPGPU-Sim uArch: cycles simulated: 45000  inst.: 8029440 (ipc=178.4) sim_rate=71056 (inst/sec) elapsed = 0:0:01:53 / Tue May 12 23:42:51 2015
GPGPU-Sim PTX: 8100000 instructions simulated : ctaid=(26,0,0) tid=(31,0,0)
GPGPU-Sim uArch: cycles simulated: 45500  inst.: 8135936 (ipc=178.8) sim_rate=71367 (inst/sec) elapsed = 0:0:01:54 / Tue May 12 23:42:52 2015
GPGPU-Sim PTX: 8200000 instructions simulated : ctaid=(27,0,0) tid=(63,0,0)
GPGPU-Sim uArch: cycles simulated: 46000  inst.: 8213760 (ipc=178.6) sim_rate=71424 (inst/sec) elapsed = 0:0:01:55 / Tue May 12 23:42:53 2015
GPGPU-Sim PTX: 8300000 instructions simulated : ctaid=(5,0,0) tid=(95,0,0)
GPGPU-Sim uArch: cycles simulated: 46500  inst.: 8297472 (ipc=178.4) sim_rate=71529 (inst/sec) elapsed = 0:0:01:56 / Tue May 12 23:42:54 2015
GPGPU-Sim PTX: 8400000 instructions simulated : ctaid=(25,0,0) tid=(127,0,0)
GPGPU-Sim uArch: cycles simulated: 47000  inst.: 8398080 (ipc=178.7) sim_rate=71778 (inst/sec) elapsed = 0:0:01:57 / Tue May 12 23:42:55 2015
GPGPU-Sim uArch: cycles simulated: 47500  inst.: 8461696 (ipc=178.1) sim_rate=71709 (inst/sec) elapsed = 0:0:01:58 / Tue May 12 23:42:56 2015
GPGPU-Sim PTX: 8500000 instructions simulated : ctaid=(19,0,0) tid=(31,0,0)
GPGPU-Sim uArch: cycles simulated: 48000  inst.: 8581888 (ipc=178.8) sim_rate=71515 (inst/sec) elapsed = 0:0:02:00 / Tue May 12 23:42:58 2015
GPGPU-Sim PTX: 8600000 instructions simulated : ctaid=(14,0,0) tid=(63,0,0)
GPGPU-Sim uArch: cycles simulated: 48500  inst.: 8643840 (ipc=178.2) sim_rate=71436 (inst/sec) elapsed = 0:0:02:01 / Tue May 12 23:42:59 2015
GPGPU-Sim PTX: 8700000 instructions simulated : ctaid=(3,0,0) tid=(95,0,0)
GPGPU-Sim uArch: cycles simulated: 49000  inst.: 8763520 (ipc=178.8) sim_rate=71832 (inst/sec) elapsed = 0:0:02:02 / Tue May 12 23:43:00 2015
GPGPU-Sim PTX: 8800000 instructions simulated : ctaid=(20,0,0) tid=(127,0,0)
GPGPU-Sim uArch: cycles simulated: 49500  inst.: 8828160 (ipc=178.3) sim_rate=71773 (inst/sec) elapsed = 0:0:02:03 / Tue May 12 23:43:01 2015
GPGPU-Sim PTX: 8900000 instructions simulated : ctaid=(9,0,0) tid=(31,0,0)
GPGPU-Sim uArch: cycles simulated: 50000  inst.: 8935424 (ipc=178.7) sim_rate=71483 (inst/sec) elapsed = 0:0:02:05 / Tue May 12 23:43:03 2015
GPGPU-Sim PTX: 9000000 instructions simulated : ctaid=(20,0,0) tid=(63,0,0)
GPGPU-Sim uArch: cycles simulated: 50500  inst.: 9012480 (ipc=178.5) sim_rate=71527 (inst/sec) elapsed = 0:0:02:06 / Tue May 12 23:43:04 2015
GPGPU-Sim PTX: 9100000 instructions simulated : ctaid=(20,0,0) tid=(95,0,0)
GPGPU-Sim uArch: cycles simulated: 51000  inst.: 9098624 (ipc=178.4) sim_rate=71642 (inst/sec) elapsed = 0:0:02:07 / Tue May 12 23:43:05 2015
GPGPU-Sim PTX: 9200000 instructions simulated : ctaid=(27,0,0) tid=(127,0,0)
GPGPU-Sim uArch: cycles simulated: 51500  inst.: 9196800 (ipc=178.6) sim_rate=71850 (inst/sec) elapsed = 0:0:02:08 / Tue May 12 23:43:06 2015
GPGPU-Sim uArch: cycles simulated: 52000  inst.: 9268224 (ipc=178.2) sim_rate=71846 (inst/sec) elapsed = 0:0:02:09 / Tue May 12 23:43:07 2015
GPGPU-Sim PTX: 9300000 instructions simulated : ctaid=(5,0,0) tid=(31,0,0)
GPGPU-Sim uArch: cycles simulated: 52500  inst.: 9381120 (ipc=178.7) sim_rate=71611 (inst/sec) elapsed = 0:0:02:11 / Tue May 12 23:43:09 2015
GPGPU-Sim PTX: 9400000 instructions simulated : ctaid=(2,0,0) tid=(63,0,0)
GPGPU-Sim uArch: cycles simulated: 53000  inst.: 9443072 (ipc=178.2) sim_rate=71538 (inst/sec) elapsed = 0:0:02:12 / Tue May 12 23:43:10 2015
GPGPU-Sim PTX: 9500000 instructions simulated : ctaid=(11,0,0) tid=(95,0,0)
GPGPU-Sim uArch: cycles simulated: 53500  inst.: 9564800 (ipc=178.8) sim_rate=71915 (inst/sec) elapsed = 0:0:02:13 / Tue May 12 23:43:11 2015
GPGPU-Sim PTX: 9600000 instructions simulated : ctaid=(16,0,0) tid=(127,0,0)
GPGPU-Sim uArch: cycles simulated: 54000  inst.: 9626880 (ipc=178.3) sim_rate=71842 (inst/sec) elapsed = 0:0:02:14 / Tue May 12 23:43:12 2015
GPGPU-Sim PTX: 9700000 instructions simulated : ctaid=(12,0,0) tid=(31,0,0)
GPGPU-Sim uArch: cycles simulated: 54500  inst.: 9735168 (ipc=178.6) sim_rate=72112 (inst/sec) elapsed = 0:0:02:15 / Tue May 12 23:43:13 2015
GPGPU-Sim PTX: 9800000 instructions simulated : ctaid=(17,0,0) tid=(63,0,0)
GPGPU-Sim uArch: cycles simulated: 55000  inst.: 9799552 (ipc=178.2) sim_rate=72055 (inst/sec) elapsed = 0:0:02:16 / Tue May 12 23:43:14 2015
GPGPU-Sim uArch: cycles simulated: 55500  inst.: 9819008 (ipc=176.9) sim_rate=71671 (inst/sec) elapsed = 0:0:02:17 / Tue May 12 23:43:15 2015
GPGPU-Sim uArch: Shader 4 finished CTA #1 (55575,0), 1 CTAs running
GPGPU-Sim uArch: core:  4, cta: 1 initialized @(55576,0)
GPGPU-Sim uArch: Shader 0 finished CTA #0 (55604,0), 1 CTAs running
GPGPU-Sim uArch: core:  0, cta: 0 initialized @(55605,0)
GPGPU-Sim uArch: Shader 4 finished CTA #0 (55741,0), 1 CTAs running
GPGPU-Sim uArch: core:  4, cta: 0 initialized @(55742,0)
GPGPU-Sim uArch: Shader 1 finished CTA #0 (55753,0), 1 CTAs running
GPGPU-Sim uArch: core:  1, cta: 0 initialized @(55754,0)
GPGPU-Sim uArch: Shader 0 finished CTA #1 (55817,0), 1 CTAs running
GPGPU-Sim uArch: Shader 5 finished CTA #0 (55817,0), 1 CTAs running
GPGPU-Sim uArch: core:  5, cta: 0 initialized @(55818,0)
GPGPU-Sim uArch: core:  0, cta: 1 initialized @(55818,0)
GPGPU-Sim uArch: Shader 6 finished CTA #0 (55823,0), 1 CTAs running
GPGPU-Sim uArch: core:  6, cta: 0 initialized @(55824,0)
GPGPU-Sim uArch: Shader 7 finished CTA #0 (55834,0), 1 CTAs running
GPGPU-Sim uArch: core:  7, cta: 0 initialized @(55835,0)
GPGPU-Sim uArch: Shader 10 finished CTA #1 (55837,0), 1 CTAs running
GPGPU-Sim uArch: core: 10, cta: 1 initialized @(55838,0)
GPGPU-Sim uArch: Shader 9 finished CTA #1 (55838,0), 1 CTAs running
GPGPU-Sim uArch: core:  9, cta: 1 initialized @(55839,0)
GPGPU-Sim uArch: Shader 13 finished CTA #1 (55840,0), 1 CTAs running
GPGPU-Sim uArch: core: 13, cta: 1 initialized @(55841,0)
GPGPU-Sim uArch: Shader 1 finished CTA #1 (55843,0), 1 CTAs running
GPGPU-Sim uArch: core:  1, cta: 1 initialized @(55844,0)
GPGPU-Sim uArch: Shader 13 finished CTA #0 (55888,0), 1 CTAs running
GPGPU-Sim uArch: core: 13, cta: 0 initialized @(55889,0)
GPGPU-Sim uArch: Shader 7 finished CTA #1 (55924,0), 1 CTAs running
GPGPU-Sim uArch: core:  7, cta: 1 initialized @(55925,0)
GPGPU-Sim uArch: Shader 10 finished CTA #0 (55927,0), 1 CTAs running
GPGPU-Sim uArch: core: 10, cta: 0 initialized @(55928,0)
GPGPU-Sim uArch: Shader 3 finished CTA #0 (55973,0), 1 CTAs running
GPGPU-Sim uArch: core:  3, cta: 0 initialized @(55974,0)
GPGPU-Sim uArch: Shader 6 finished CTA #1 (55976,0), 1 CTAs running
GPGPU-Sim uArch: core:  6, cta: 1 initialized @(55977,0)
GPGPU-Sim uArch: Shader 9 finished CTA #0 (55982,0), 1 CTAs running
GPGPU-Sim uArch: core:  9, cta: 0 initialized @(55983,0)
GPGPU-Sim uArch: Shader 12 finished CTA #0 (55991,0), 1 CTAs running
GPGPU-Sim uArch: core: 12, cta: 0 initialized @(55992,0)
GPGPU-Sim uArch: cycles simulated: 56000  inst.: 9835392 (ipc=175.6) sim_rate=70758 (inst/sec) elapsed = 0:0:02:19 / Tue May 12 23:43:17 2015
GPGPU-Sim uArch: Shader 3 finished CTA #1 (56021,0), 1 CTAs running
GPGPU-Sim uArch: core:  3, cta: 1 initialized @(56022,0)
GPGPU-Sim uArch: Shader 5 finished CTA #1 (56037,0), 1 CTAs running
GPGPU-Sim uArch: core:  5, cta: 1 initialized @(56038,0)
GPGPU-Sim uArch: Shader 12 finished CTA #1 (56039,0), 1 CTAs running
GPGPU-Sim uArch: core: 12, cta: 1 initialized @(56040,0)
GPGPU-Sim uArch: Shader 8 finished CTA #0 (56040,0), 1 CTAs running
GPGPU-Sim uArch: core:  8, cta: 0 initialized @(56041,0)
GPGPU-Sim uArch: Shader 14 finished CTA #0 (56046,0), 1 CTAs running
GPGPU-Sim uArch: core: 14, cta: 0 initialized @(56047,0)
GPGPU-Sim uArch: Shader 2 finished CTA #1 (56172,0), 1 CTAs running
GPGPU-Sim uArch: core:  2, cta: 1 initialized @(56173,0)
GPGPU-Sim uArch: Shader 8 finished CTA #1 (56202,0), 1 CTAs running
GPGPU-Sim uArch: core:  8, cta: 1 initialized @(56203,0)
GPGPU-Sim uArch: Shader 11 finished CTA #0 (56205,0), 1 CTAs running
GPGPU-Sim uArch: core: 11, cta: 0 initialized @(56206,0)
GPGPU-Sim uArch: Shader 14 finished CTA #1 (56208,0), 1 CTAs running
GPGPU-Sim uArch: core: 14, cta: 1 initialized @(56209,0)
GPGPU-Sim PTX: 9900000 instructions simulated : ctaid=(42,0,0) tid=(95,0,0)
GPGPU-Sim uArch: Shader 2 finished CTA #0 (56227,0), 1 CTAs running
GPGPU-Sim uArch: core:  2, cta: 0 initialized @(56228,0)
GPGPU-Sim uArch: Shader 11 finished CTA #1 (56261,0), 1 CTAs running
GPGPU-Sim uArch: core: 11, cta: 1 initialized @(56262,0)
GPGPU-Sim uArch: cycles simulated: 56500  inst.: 9956736 (ipc=176.2) sim_rate=70615 (inst/sec) elapsed = 0:0:02:21 / Tue May 12 23:43:19 2015
GPGPU-Sim PTX: 10000000 instructions simulated : ctaid=(51,0,0) tid=(127,0,0)
GPGPU-Sim PTX: 10100000 instructions simulated : ctaid=(50,0,0) tid=(31,0,0)
GPGPU-Sim uArch: cycles simulated: 57000  inst.: 10095744 (ipc=177.1) sim_rate=71096 (inst/sec) elapsed = 0:0:02:22 / Tue May 12 23:43:20 2015
GPGPU-Sim PTX: 10200000 instructions simulated : ctaid=(58,0,0) tid=(63,0,0)
GPGPU-Sim uArch: cycles simulated: 57500  inst.: 10189952 (ipc=177.2) sim_rate=70763 (inst/sec) elapsed = 0:0:02:24 / Tue May 12 23:43:22 2015
GPGPU-Sim PTX: 10300000 instructions simulated : ctaid=(37,0,0) tid=(95,0,0)
GPGPU-Sim uArch: cycles simulated: 58000  inst.: 10298240 (ipc=177.6) sim_rate=71022 (inst/sec) elapsed = 0:0:02:25 / Tue May 12 23:43:23 2015
GPGPU-Sim PTX: 10400000 instructions simulated : ctaid=(59,0,0) tid=(127,0,0)
GPGPU-Sim PTX: 10500000 instructions simulated : ctaid=(58,0,0) tid=(31,0,0)
GPGPU-Sim PTX: 10600000 instructions simulated : ctaid=(54,0,0) tid=(63,0,0)
GPGPU-Sim uArch: cycles simulated: 58500  inst.: 10582400 (ipc=180.9) sim_rate=71022 (inst/sec) elapsed = 0:0:02:29 / Tue May 12 23:43:27 2015
GPGPU-Sim PTX: 10700000 instructions simulated : ctaid=(45,0,0) tid=(95,0,0)
GPGPU-Sim PTX: 10800000 instructions simulated : ctaid=(54,0,0) tid=(127,0,0)
GPGPU-Sim uArch: cycles simulated: 59000  inst.: 10782464 (ipc=182.8) sim_rate=71407 (inst/sec) elapsed = 0:0:02:31 / Tue May 12 23:43:29 2015
GPGPU-Sim PTX: 10900000 instructions simulated : ctaid=(55,0,0) tid=(31,0,0)
GPGPU-Sim uArch: cycles simulated: 59500  inst.: 10877568 (ipc=182.8) sim_rate=71562 (inst/sec) elapsed = 0:0:02:32 / Tue May 12 23:43:30 2015
GPGPU-Sim PTX: 11000000 instructions simulated : ctaid=(30,0,0) tid=(63,0,0)
GPGPU-Sim uArch: cycles simulated: 60000  inst.: 10997632 (ipc=183.3) sim_rate=71413 (inst/sec) elapsed = 0:0:02:34 / Tue May 12 23:43:32 2015
GPGPU-Sim PTX: 11100000 instructions simulated : ctaid=(55,0,0) tid=(95,0,0)
GPGPU-Sim uArch: cycles simulated: 60500  inst.: 11119360 (ipc=183.8) sim_rate=71737 (inst/sec) elapsed = 0:0:02:35 / Tue May 12 23:43:33 2015
GPGPU-Sim PTX: 11200000 instructions simulated : ctaid=(46,0,0) tid=(127,0,0)
GPGPU-Sim uArch: cycles simulated: 61000  inst.: 11238528 (ipc=184.2) sim_rate=71582 (inst/sec) elapsed = 0:0:02:37 / Tue May 12 23:43:35 2015
GPGPU-Sim PTX: 11300000 instructions simulated : ctaid=(59,0,0) tid=(31,0,0)
GPGPU-Sim uArch: cycles simulated: 61500  inst.: 11360768 (ipc=184.7) sim_rate=71451 (inst/sec) elapsed = 0:0:02:39 / Tue May 12 23:43:37 2015
GPGPU-Sim PTX: 11400000 instructions simulated : ctaid=(53,0,0) tid=(63,0,0)
GPGPU-Sim PTX: 11500000 instructions simulated : ctaid=(37,0,0) tid=(95,0,0)
GPGPU-Sim uArch: cycles simulated: 62000  inst.: 11491456 (ipc=185.3) sim_rate=71821 (inst/sec) elapsed = 0:0:02:40 / Tue May 12 23:43:38 2015
GPGPU-Sim PTX: 11600000 instructions simulated : ctaid=(33,0,0) tid=(127,0,0)
GPGPU-Sim uArch: cycles simulated: 62500  inst.: 11627136 (ipc=186.0) sim_rate=71772 (inst/sec) elapsed = 0:0:02:42 / Tue May 12 23:43:40 2015
GPGPU-Sim PTX: 11700000 instructions simulated : ctaid=(47,0,0) tid=(31,0,0)
GPGPU-Sim uArch: cycles simulated: 63000  inst.: 11758592 (ipc=186.6) sim_rate=71698 (inst/sec) elapsed = 0:0:02:44 / Tue May 12 23:43:42 2015
GPGPU-Sim PTX: 11800000 instructions simulated : ctaid=(30,0,0) tid=(63,0,0)
GPGPU-Sim PTX: 11900000 instructions simulated : ctaid=(31,0,0) tid=(95,0,0)
GPGPU-Sim uArch: cycles simulated: 63500  inst.: 11889408 (ipc=187.2) sim_rate=71622 (inst/sec) elapsed = 0:0:02:46 / Tue May 12 23:43:44 2015
GPGPU-Sim PTX: 12000000 instructions simulated : ctaid=(44,0,0) tid=(127,0,0)
GPGPU-Sim uArch: cycles simulated: 64000  inst.: 12018944 (ipc=187.8) sim_rate=71969 (inst/sec) elapsed = 0:0:02:47 / Tue May 12 23:43:45 2015
GPGPU-Sim PTX: 12100000 instructions simulated : ctaid=(59,0,0) tid=(31,0,0)
GPGPU-Sim uArch: cycles simulated: 64500  inst.: 12153728 (ipc=188.4) sim_rate=71915 (inst/sec) elapsed = 0:0:02:49 / Tue May 12 23:43:47 2015
GPGPU-Sim PTX: 12200000 instructions simulated : ctaid=(55,0,0) tid=(63,0,0)
GPGPU-Sim PTX: 12300000 instructions simulated : ctaid=(47,0,0) tid=(95,0,0)
GPGPU-Sim uArch: cycles simulated: 65000  inst.: 12288128 (ipc=189.0) sim_rate=71860 (inst/sec) elapsed = 0:0:02:51 / Tue May 12 23:43:49 2015
GPGPU-Sim PTX: 12400000 instructions simulated : ctaid=(34,0,0) tid=(127,0,0)
GPGPU-Sim uArch: cycles simulated: 65500  inst.: 12420736 (ipc=189.6) sim_rate=71796 (inst/sec) elapsed = 0:0:02:53 / Tue May 12 23:43:51 2015
GPGPU-Sim PTX: 12500000 instructions simulated : ctaid=(50,0,0) tid=(31,0,0)
GPGPU-Sim uArch: cycles simulated: 66000  inst.: 12551040 (ipc=190.2) sim_rate=72132 (inst/sec) elapsed = 0:0:02:54 / Tue May 12 23:43:52 2015
GPGPU-Sim PTX: 12600000 instructions simulated : ctaid=(59,0,0) tid=(63,0,0)
GPGPU-Sim PTX: 12700000 instructions simulated : ctaid=(58,0,0) tid=(95,0,0)
GPGPU-Sim uArch: cycles simulated: 66500  inst.: 12680448 (ipc=190.7) sim_rate=72048 (inst/sec) elapsed = 0:0:02:56 / Tue May 12 23:43:54 2015
GPGPU-Sim PTX: 12800000 instructions simulated : ctaid=(42,0,0) tid=(127,0,0)
GPGPU-Sim uArch: cycles simulated: 67000  inst.: 12809216 (ipc=191.2) sim_rate=71961 (inst/sec) elapsed = 0:0:02:58 / Tue May 12 23:43:56 2015
GPGPU-Sim PTX: 12900000 instructions simulated : ctaid=(48,0,0) tid=(31,0,0)
GPGPU-Sim uArch: cycles simulated: 67500  inst.: 12938752 (ipc=191.7) sim_rate=72283 (inst/sec) elapsed = 0:0:02:59 / Tue May 12 23:43:57 2015
GPGPU-Sim PTX: 13000000 instructions simulated : ctaid=(57,0,0) tid=(63,0,0)
GPGPU-Sim PTX: 13100000 instructions simulated : ctaid=(44,0,0) tid=(95,0,0)
GPGPU-Sim uArch: cycles simulated: 68000  inst.: 13071744 (ipc=192.2) sim_rate=72219 (inst/sec) elapsed = 0:0:03:01 / Tue May 12 23:43:59 2015
GPGPU-Sim PTX: 13200000 instructions simulated : ctaid=(54,0,0) tid=(127,0,0)
GPGPU-Sim uArch: cycles simulated: 68500  inst.: 13209472 (ipc=192.8) sim_rate=72182 (inst/sec) elapsed = 0:0:03:03 / Tue May 12 23:44:01 2015
GPGPU-Sim PTX: 13300000 instructions simulated : ctaid=(57,0,0) tid=(31,0,0)
GPGPU-Sim uArch: cycles simulated: 69000  inst.: 13342208 (ipc=193.4) sim_rate=72120 (inst/sec) elapsed = 0:0:03:05 / Tue May 12 23:44:03 2015
GPGPU-Sim PTX: 13400000 instructions simulated : ctaid=(30,0,0) tid=(63,0,0)
GPGPU-Sim PTX: 13500000 instructions simulated : ctaid=(59,0,0) tid=(95,0,0)
GPGPU-Sim uArch: cycles simulated: 69500  inst.: 13476352 (ipc=193.9) sim_rate=72453 (inst/sec) elapsed = 0:0:03:06 / Tue May 12 23:44:04 2015
GPGPU-Sim PTX: 13600000 instructions simulated : ctaid=(40,0,0) tid=(127,0,0)
GPGPU-Sim uArch: cycles simulated: 70000  inst.: 13608832 (ipc=194.4) sim_rate=72387 (inst/sec) elapsed = 0:0:03:08 / Tue May 12 23:44:06 2015
GPGPU-Sim PTX: 13700000 instructions simulated : ctaid=(48,0,0) tid=(31,0,0)
GPGPU-Sim uArch: cycles simulated: 70500  inst.: 13744640 (ipc=195.0) sim_rate=72340 (inst/sec) elapsed = 0:0:03:10 / Tue May 12 23:44:08 2015
GPGPU-Sim PTX: 13800000 instructions simulated : ctaid=(50,0,0) tid=(63,0,0)
GPGPU-Sim PTX: 13900000 instructions simulated : ctaid=(47,0,0) tid=(95,0,0)
GPGPU-Sim uArch: cycles simulated: 71000  inst.: 13880960 (ipc=195.5) sim_rate=72296 (inst/sec) elapsed = 0:0:03:12 / Tue May 12 23:44:10 2015
GPGPU-Sim PTX: 14000000 instructions simulated : ctaid=(59,0,0) tid=(127,0,0)
GPGPU-Sim uArch: cycles simulated: 71500  inst.: 14017792 (ipc=196.1) sim_rate=72631 (inst/sec) elapsed = 0:0:03:13 / Tue May 12 23:44:11 2015
GPGPU-Sim PTX: 14100000 instructions simulated : ctaid=(35,0,0) tid=(31,0,0)
GPGPU-Sim uArch: cycles simulated: 72000  inst.: 14151808 (ipc=196.6) sim_rate=72573 (inst/sec) elapsed = 0:0:03:15 / Tue May 12 23:44:13 2015
GPGPU-Sim PTX: 14200000 instructions simulated : ctaid=(38,0,0) tid=(63,0,0)
GPGPU-Sim PTX: 14300000 instructions simulated : ctaid=(50,0,0) tid=(95,0,0)
GPGPU-Sim uArch: cycles simulated: 72500  inst.: 14283520 (ipc=197.0) sim_rate=72505 (inst/sec) elapsed = 0:0:03:17 / Tue May 12 23:44:15 2015
GPGPU-Sim PTX: 14400000 instructions simulated : ctaid=(53,0,0) tid=(127,0,0)
GPGPU-Sim uArch: cycles simulated: 73000  inst.: 14412416 (ipc=197.4) sim_rate=72424 (inst/sec) elapsed = 0:0:03:19 / Tue May 12 23:44:17 2015
GPGPU-Sim PTX: 14500000 instructions simulated : ctaid=(41,0,0) tid=(31,0,0)
GPGPU-Sim uArch: cycles simulated: 73500  inst.: 14543104 (ipc=197.9) sim_rate=72715 (inst/sec) elapsed = 0:0:03:20 / Tue May 12 23:44:18 2015
GPGPU-Sim PTX: 14600000 instructions simulated : ctaid=(40,0,0) tid=(63,0,0)
GPGPU-Sim PTX: 14700000 instructions simulated : ctaid=(43,0,0) tid=(95,0,0)
GPGPU-Sim uArch: cycles simulated: 74000  inst.: 14678784 (ipc=198.4) sim_rate=72667 (inst/sec) elapsed = 0:0:03:22 / Tue May 12 23:44:20 2015
GPGPU-Sim PTX: 14800000 instructions simulated : ctaid=(33,0,0) tid=(127,0,0)
GPGPU-Sim uArch: cycles simulated: 74500  inst.: 14813952 (ipc=198.8) sim_rate=72617 (inst/sec) elapsed = 0:0:03:24 / Tue May 12 23:44:22 2015
GPGPU-Sim PTX: 14900000 instructions simulated : ctaid=(40,0,0) tid=(31,0,0)
GPGPU-Sim uArch: cycles simulated: 75000  inst.: 14947328 (ipc=199.3) sim_rate=72913 (inst/sec) elapsed = 0:0:03:25 / Tue May 12 23:44:23 2015
GPGPU-Sim PTX: 15000000 instructions simulated : ctaid=(30,0,0) tid=(63,0,0)
GPGPU-Sim PTX: 15100000 instructions simulated : ctaid=(49,0,0) tid=(95,0,0)
GPGPU-Sim uArch: cycles simulated: 75500  inst.: 15079680 (ipc=199.7) sim_rate=72848 (inst/sec) elapsed = 0:0:03:27 / Tue May 12 23:44:25 2015
GPGPU-Sim PTX: 15200000 instructions simulated : ctaid=(31,0,0) tid=(127,0,0)
GPGPU-Sim uArch: cycles simulated: 76000  inst.: 15211008 (ipc=200.1) sim_rate=72779 (inst/sec) elapsed = 0:0:03:29 / Tue May 12 23:44:27 2015
GPGPU-Sim PTX: 15300000 instructions simulated : ctaid=(43,0,0) tid=(31,0,0)
GPGPU-Sim uArch: cycles simulated: 76500  inst.: 15342848 (ipc=200.6) sim_rate=73061 (inst/sec) elapsed = 0:0:03:30 / Tue May 12 23:44:28 2015
GPGPU-Sim PTX: 15400000 instructions simulated : ctaid=(58,0,0) tid=(63,0,0)
GPGPU-Sim PTX: 15500000 instructions simulated : ctaid=(52,0,0) tid=(95,0,0)
GPGPU-Sim uArch: cycles simulated: 77000  inst.: 15481344 (ipc=201.1) sim_rate=73025 (inst/sec) elapsed = 0:0:03:32 / Tue May 12 23:44:30 2015
GPGPU-Sim PTX: 15600000 instructions simulated : ctaid=(49,0,0) tid=(127,0,0)
GPGPU-Sim uArch: cycles simulated: 77500  inst.: 15613696 (ipc=201.5) sim_rate=72961 (inst/sec) elapsed = 0:0:03:34 / Tue May 12 23:44:32 2015
GPGPU-Sim PTX: 15700000 instructions simulated : ctaid=(42,0,0) tid=(31,0,0)
GPGPU-Sim uArch: cycles simulated: 78000  inst.: 15745536 (ipc=201.9) sim_rate=73235 (inst/sec) elapsed = 0:0:03:35 / Tue May 12 23:44:33 2015
GPGPU-Sim PTX: 15800000 instructions simulated : ctaid=(30,0,0) tid=(63,0,0)
GPGPU-Sim PTX: 15900000 instructions simulated : ctaid=(58,0,0) tid=(95,0,0)
GPGPU-Sim uArch: cycles simulated: 78500  inst.: 15878016 (ipc=202.3) sim_rate=73170 (inst/sec) elapsed = 0:0:03:37 / Tue May 12 23:44:35 2015
GPGPU-Sim PTX: 16000000 instructions simulated : ctaid=(52,0,0) tid=(127,0,0)
GPGPU-Sim uArch: cycles simulated: 79000  inst.: 16010752 (ipc=202.7) sim_rate=73108 (inst/sec) elapsed = 0:0:03:39 / Tue May 12 23:44:37 2015
GPGPU-Sim PTX: 16100000 instructions simulated : ctaid=(43,0,0) tid=(31,0,0)
GPGPU-Sim uArch: cycles simulated: 79500  inst.: 16139648 (ipc=203.0) sim_rate=73362 (inst/sec) elapsed = 0:0:03:40 / Tue May 12 23:44:38 2015
GPGPU-Sim PTX: 16200000 instructions simulated : ctaid=(31,0,0) tid=(63,0,0)
GPGPU-Sim PTX: 16300000 instructions simulated : ctaid=(42,0,0) tid=(95,0,0)
GPGPU-Sim uArch: cycles simulated: 80000  inst.: 16278784 (ipc=203.5) sim_rate=73327 (inst/sec) elapsed = 0:0:03:42 / Tue May 12 23:44:40 2015
GPGPU-Sim PTX: 16400000 instructions simulated : ctaid=(49,0,0) tid=(127,0,0)
GPGPU-Sim uArch: cycles simulated: 80500  inst.: 16412672 (ipc=203.9) sim_rate=73270 (inst/sec) elapsed = 0:0:03:44 / Tue May 12 23:44:42 2015
GPGPU-Sim PTX: 16500000 instructions simulated : ctaid=(46,0,0) tid=(31,0,0)
GPGPU-Sim uArch: cycles simulated: 81000  inst.: 16545792 (ipc=204.3) sim_rate=73211 (inst/sec) elapsed = 0:0:03:46 / Tue May 12 23:44:44 2015
GPGPU-Sim PTX: 16600000 instructions simulated : ctaid=(32,0,0) tid=(63,0,0)
GPGPU-Sim PTX: 16700000 instructions simulated : ctaid=(50,0,0) tid=(95,0,0)
GPGPU-Sim uArch: cycles simulated: 81500  inst.: 16676480 (ipc=204.6) sim_rate=73464 (inst/sec) elapsed = 0:0:03:47 / Tue May 12 23:44:45 2015
GPGPU-Sim PTX: 16800000 instructions simulated : ctaid=(57,0,0) tid=(127,0,0)
GPGPU-Sim uArch: cycles simulated: 82000  inst.: 16807808 (ipc=205.0) sim_rate=73396 (inst/sec) elapsed = 0:0:03:49 / Tue May 12 23:44:47 2015
GPGPU-Sim PTX: 16900000 instructions simulated : ctaid=(37,0,0) tid=(31,0,0)
GPGPU-Sim uArch: cycles simulated: 82500  inst.: 16940160 (ipc=205.3) sim_rate=73334 (inst/sec) elapsed = 0:0:03:51 / Tue May 12 23:44:49 2015
GPGPU-Sim PTX: 17000000 instructions simulated : ctaid=(34,0,0) tid=(63,0,0)
GPGPU-Sim PTX: 17100000 instructions simulated : ctaid=(38,0,0) tid=(95,0,0)
GPGPU-Sim uArch: cycles simulated: 83000  inst.: 17077504 (ipc=205.8) sim_rate=73609 (inst/sec) elapsed = 0:0:03:52 / Tue May 12 23:44:50 2015
GPGPU-Sim PTX: 17200000 instructions simulated : ctaid=(56,0,0) tid=(127,0,0)
GPGPU-Sim uArch: cycles simulated: 83500  inst.: 17210240 (ipc=206.1) sim_rate=73548 (inst/sec) elapsed = 0:0:03:54 / Tue May 12 23:44:52 2015
GPGPU-Sim PTX: 17300000 instructions simulated : ctaid=(54,0,0) tid=(31,0,0)
GPGPU-Sim uArch: cycles simulated: 84000  inst.: 17342848 (ipc=206.5) sim_rate=73486 (inst/sec) elapsed = 0:0:03:56 / Tue May 12 23:44:54 2015
GPGPU-Sim PTX: 17400000 instructions simulated : ctaid=(46,0,0) tid=(63,0,0)
GPGPU-Sim PTX: 17500000 instructions simulated : ctaid=(59,0,0) tid=(95,0,0)
GPGPU-Sim uArch: cycles simulated: 84500  inst.: 17474432 (ipc=206.8) sim_rate=73421 (inst/sec) elapsed = 0:0:03:58 / Tue May 12 23:44:56 2015
GPGPU-Sim PTX: 17600000 instructions simulated : ctaid=(32,0,0) tid=(127,0,0)
GPGPU-Sim uArch: cycles simulated: 85000  inst.: 17606400 (ipc=207.1) sim_rate=73360 (inst/sec) elapsed = 0:0:04:00 / Tue May 12 23:44:58 2015
GPGPU-Sim PTX: 17700000 instructions simulated : ctaid=(36,0,0) tid=(31,0,0)
GPGPU-Sim uArch: cycles simulated: 85500  inst.: 17739904 (ipc=207.5) sim_rate=73305 (inst/sec) elapsed = 0:0:04:02 / Tue May 12 23:45:00 2015
GPGPU-Sim PTX: 17800000 instructions simulated : ctaid=(57,0,0) tid=(63,0,0)
GPGPU-Sim PTX: 17900000 instructions simulated : ctaid=(52,0,0) tid=(95,0,0)
GPGPU-Sim uArch: cycles simulated: 86000  inst.: 17873536 (ipc=207.8) sim_rate=73553 (inst/sec) elapsed = 0:0:04:03 / Tue May 12 23:45:01 2015
GPGPU-Sim PTX: 18000000 instructions simulated : ctaid=(56,0,0) tid=(127,0,0)
GPGPU-Sim uArch: cycles simulated: 86500  inst.: 18007040 (ipc=208.2) sim_rate=73498 (inst/sec) elapsed = 0:0:04:05 / Tue May 12 23:45:03 2015
GPGPU-Sim PTX: 18100000 instructions simulated : ctaid=(47,0,0) tid=(31,0,0)
GPGPU-Sim uArch: cycles simulated: 87000  inst.: 18137728 (ipc=208.5) sim_rate=73432 (inst/sec) elapsed = 0:0:04:07 / Tue May 12 23:45:05 2015
GPGPU-Sim PTX: 18200000 instructions simulated : ctaid=(43,0,0) tid=(63,0,0)
GPGPU-Sim PTX: 18300000 instructions simulated : ctaid=(49,0,0) tid=(95,0,0)
GPGPU-Sim uArch: cycles simulated: 87500  inst.: 18269184 (ipc=208.8) sim_rate=73666 (inst/sec) elapsed = 0:0:04:08 / Tue May 12 23:45:06 2015
GPGPU-Sim PTX: 18400000 instructions simulated : ctaid=(36,0,0) tid=(127,0,0)
GPGPU-Sim uArch: cycles simulated: 88000  inst.: 18399104 (ipc=209.1) sim_rate=73596 (inst/sec) elapsed = 0:0:04:10 / Tue May 12 23:45:08 2015
GPGPU-Sim PTX: 18500000 instructions simulated : ctaid=(30,0,0) tid=(31,0,0)
GPGPU-Sim uArch: cycles simulated: 88500  inst.: 18531584 (ipc=209.4) sim_rate=73538 (inst/sec) elapsed = 0:0:04:12 / Tue May 12 23:45:10 2015
GPGPU-Sim PTX: 18600000 instructions simulated : ctaid=(58,0,0) tid=(63,0,0)
GPGPU-Sim PTX: 18700000 instructions simulated : ctaid=(40,0,0) tid=(95,0,0)
[...]
traffic_breakdown_memtocore[GLOBAL_ACC_W] = 196608 {8:24576,}
traffic_breakdown_memtocore[INST_ACC_R] = 4094688 {136:30108,}
maxmrqlatency = 155 
maxdqlatency = 0 
maxmflatency = 641 
averagemflatency = 240 
max_icnt2mem_latency = 356 
max_icnt2sh_latency = 503238 
mrq_lat_table:2193 	571 	180 	2055 	1934 	1585 	840 	16 	0 	0 	0 	0 	0 	0 	0 	0 	0 	0 	0 	0 	0 	0 	0 	0 	0 	0 	0 	0 	0 	0 	0 	0 	
dq_lat_table:0 	0 	0 	0 	0 	0 	0 	0 	0 	0 	0 	0 	0 	0 	0 	0 	0 	0 	0 	0 	0 	0 	0 	0 	0 	0 	0 	0 	0 	0 	0 	0 	
mf_lat_table:0 	0 	0 	0 	0 	0 	0 	17199 	9108 	138 	0 	0 	0 	0 	0 	0 	0 	0 	0 	0 	0 	0 	0 	0 	0 	0 	0 	0 	0 	0 	0 	0 	
icnt2mem_lat_table:0 	0 	0 	32750 	2426 	13060 	7371 	880 	66 	0 	0 	0 	0 	0 	0 	0 	0 	0 	0 	0 	0 	0 	0 	0 	
icnt2sh_lat_table:0 	0 	0 	700 	737 	432 	0 	0 	0 	0 	0 	0 	0 	0 	0 	1920 	3840 	5760 	13056 	0 	0 	0 	0 	0 	
mf_lat_pw_table:0 	0 	0 	0 	0 	0 	0 	76 	42 	0 	0 	0 	0 	0 	0 	0 	0 	0 	0 	0 	0 	0 	0 	0 	0 	0 	0 	0 	0 	0 	0 	0 	
maximum concurrent accesses to same row:
dram[0]:         7         8         6         5        10        10         0         0         0         0         0         0         0         0         0         0 
dram[1]:         8         8         6         4        10        10         0         0         0         0         0         0         0         0         0         0 
dram[2]:         8         8         6         4        10        12         0         0         0         0         0         0         0         0         0         0 
dram[3]:         8         8         6         4        10        12         0         0         0         0         0         0         0         0         0         0 
dram[4]:         8         8         6         4        10        12         0         0         0         0         0         0         0         0         0         0 
dram[5]:         7         8         6         4        10        12         0         0         0         0         0         0         0         0         0         0 
maximum service time to same row:
dram[0]:    203837    199777    282340    278191    425308    425305     57435     57521    169534    169604    281422    281513     55088     55041     92510     92747 
dram[1]:    203452    199025    281639    277514    425335    425432     57431     57516    169529    169600    281418    281509     55094     55107     92544     92582 
dram[2]:    202788    198258    280895    276794    425305    425417     57574     57672    169663    169697    281504    281575     55052     55071     92519     92557 
dram[3]:    202285    197632    280364    276143    425407    425497     57569     57668    169662    169693    281501    281571     55150     55066     92654     92724 
dram[4]:    201643    196855    279651    275404    425392    425466     57679     57654    169619    169688    281499    281601     55107     55032     92629     92700 
dram[5]:    200075    196204    278922    274784    425359    425405     57674     57650    169615    169685    281494    281597     55087     55113     92774     92691 
average row accesses per activate:
dram[0]: 42.250000 84.000000 83.000000 82.500000 60.000000 60.000000 32.000000 32.000000 32.000000 32.000000 32.000000 32.000000 72.000000 72.000000 160.000000 160.000000 
dram[1]: 84.000000 84.000000 83.000000 82.000000 60.000000 60.000000 32.000000 32.000000 32.000000 32.000000 32.000000 32.000000 72.000000 72.000000 160.000000 160.000000 
dram[2]: 84.000000 84.000000 83.000000 82.000000 60.000000 61.000000 32.000000 32.000000 32.000000 32.000000 32.000000 32.000000 72.000000 71.000000 160.000000 160.000000 
dram[3]: 84.000000 84.000000 83.000000 82.000000 60.000000 56.000000 32.000000 32.000000 32.000000 32.000000 32.000000 32.000000 72.000000 80.000000 160.000000 160.000000 
dram[4]: 84.000000 84.000000 83.000000 82.000000 60.000000 56.000000 32.000000 32.000000 32.000000 32.000000 32.000000 32.000000 72.000000 80.000000 160.000000 160.000000 
dram[5]: 83.500000 84.000000 83.000000 82.000000 60.000000 56.000000 32.000000 32.000000 32.000000 32.000000 32.000000 32.000000 72.000000 80.000000 160.000000 160.000000 
average row locality = 9374/134 = 69.955223
number of total memory accesses made:
dram[0]:         0         0         0         0         0         0         0         0         0         0         0         0         0         0         0         0 
dram[1]:         0         0         0         0         0         0         0         0         0         0         0         0         0         0         0         0 
dram[2]:         0         0         0         0         0         0         0         0         0         0         0         0         0         0         0         0 
dram[3]:         0         0         0         0         0         0         0         0         0         0         0         0         0         0         0         0 
dram[4]:         0         0         0         0         0         0         0         0         0         0         0         0         0         0         0         0 
dram[5]:         0         0         0         0         0         0         0         0         0         0         0         0         0         0         0         0 
total accesses: 0
min_bank_accesses = 0!
min_chip_accesses = 0!
number of total read accesses:
dram[0]:        41        40        38        37        32        32        32        32        32        32        32        32        32        32        32        32 
dram[1]:        40        40        38        36        32        32        32        32        32        32        32        32        32        32        32        32 
dram[2]:        40        40        38        36        32        34        32        32        32        32        32        32        32        31        32        32 
dram[3]:        40        40        38        36        32        32        32        32        32        32        32        32        32        32        32        32 
dram[4]:        40        40        38        36        32        32        32        32        32        32        32        32        32        32        32        32 
dram[5]:        39        40        38        36        32        32        32        32        32        32        32        32        32        32        32        32 
total reads: 3230
bank skew: 41/31 = 1.32
chip skew: 540/537 = 1.01
number of total write accesses:
dram[0]:       128       128       128       128        88        88         0         0         0         0         0         0        40        40       128       128 
dram[1]:       128       128       128       128        88        88         0         0         0         0         0         0        40        40       128       128 
dram[2]:       128       128       128       128        88        88         0         0         0         0         0         0        40        40       128       128 
dram[3]:       128       128       128       128        88        80         0         0         0         0         0         0        40        48       128       128 
dram[4]:       128       128       128       128        88        80         0         0         0         0         0         0        40        48       128       128 
dram[5]:       128       128       128       128        88        80         0         0         0         0         0         0        40        48       128       128 
total reads: 6144
min_bank_accesses = 0!
chip skew: 1024/1024 = 1.00
average mf latency per bank:
dram[0]:        685       708       706       688       709       659       344       338       347       329       355       331       798       925       780       788
dram[1]:        703       733       693       743       704       696       273       278       272       277       273       286       708       889       766       760
dram[2]:        680       705       679       730       704       667       341       344       327       349       316       354       727       890       748       751
dram[3]:        770       692       706       711       694       684       278       271       279       277       278       273       798       680       755       753
dram[4]:        732       689       684       698       709       691       352       342       363       316       355       320       797       710       721       724
dram[5]:        734       688       730       739       678       713       271       277       271       275       270       277       820       803       811       796
maximum mf latency per bank:
dram[0]:        382       411       435       383       464       379       293       301       301       305       310       301       557       613       512       475
dram[1]:        407       448       381       426       427       374       295       298       295       302       300       323       546       641       440       403
dram[2]:        407       383       371       402       411       373       294       296       295       307       301       299       538       641       444       432
dram[3]:        502       383       391       401       411       436       302       304       302       315       310       302       627       487       403       434
dram[4]:        504       396       375       396       432       435       302       302       301       301       294       301       609       575       389       404
dram[5]:        439       377       427       450       386       478       298       298       302       296       296       301       502       593       481       495

Number of Memory Banks Accessed per Memory Operation per Warp (from 0):
0	0	0	0	0	0	0	0	0	0	0	0	0	0	0	0	0	0	0	0	0	0	0	0	0	0	0	0	0	0	0	0	0	0	0	0	0	0	0	0	0	0	0	0	0	0	0	0	0	0	0	0	0	0	0	0	0	0	0	0	0	0	0	0	0	0	0	0	0	0	0	0	0	0	0	0	0	0	0	0	0	0	0	0	0	0	0	0	0	0	0	0	0	0	0	0	
Average # of Memory Banks Accessed per Memory Operation per Warp=-nan

position of mrq chosen
0	0	0	0	0	0	0	0	0	0	0	0	0	0	0	0	

average position of mrq chosen = -nan
Memory Partition 0: 
Cache L2_bank_000:
MSHR contents

Cache L2_bank_001:
MSHR contents

In Dram Latency Queue (total = 0): 
DRAM[0]: 16 bks, busW=4 BL=8 CL=12, tRRD=2 tCCD=6, tRCD=12 tRAS=28 tRP=12 tRC=40
n_cmd=664275 n_nop=662139 n_act=24 n_pre=8 n_req=1564 n_rd=1080 n_write=1024 bw_util=0.006335
n_activity=11988 dram_eff=0.351
bk0: 82a 662851i bk1: 80a 662868i bk2: 76a 662963i bk3: 74a 662957i bk4: 64a 663293i bk5: 64a 663274i bk6: 64a 664088i bk7: 64a 664075i bk8: 64a 664101i bk9: 64a 664074i bk10: 64a 664093i bk11: 64a 664090i bk12: 64a 663713i bk13: 64a 663637i bk14: 64a 662912i bk15: 64a 662897i 
dram_util_bins: 0 0 0 0 0 0 0 0 0 0
dram_eff_bins: 0 0 0 0 0 0 0 0 0 0
mrqq: max=16 avg=0.0741365
Memory Partition 1: 
Cache L2_bank_002:
MSHR contents

Cache L2_bank_003:
MSHR contents

In Dram Latency Queue (total = 0): 
DRAM[1]: 16 bks, busW=4 BL=8 CL=12, tRRD=2 tCCD=6, tRCD=12 tRAS=28 tRP=12 tRC=40
n_cmd=664275 n_nop=662147 n_act=22 n_pre=6 n_req=1562 n_rd=1076 n_write=1024 bw_util=0.006323
n_activity=11833 dram_eff=0.3549
bk0: 80a 662889i bk1: 80a 662862i bk2: 76a 662950i bk3: 72a 662966i bk4: 64a 663336i bk5: 64a 663280i bk6: 64a 664090i bk7: 64a 664075i bk8: 64a 664097i bk9: 64a 664072i bk10: 64a 664097i bk11: 64a 664071i bk12: 64a 663656i bk13: 64a 663599i bk14: 64a 662981i bk15: 64a 662902i 
dram_util_bins: 0 0 0 0 0 0 0 0 0 0
dram_eff_bins: 0 0 0 0 0 0 0 0 0 0
mrqq: max=16 avg=0.0686342
Memory Partition 2: 
Cache L2_bank_004:
MSHR contents

Cache L2_bank_005:
MSHR contents

In Dram Latency Queue (total = 0): 
DRAM[2]: 16 bks, busW=4 BL=8 CL=12, tRRD=2 tCCD=6, tRCD=12 tRAS=28 tRP=12 tRC=40
n_cmd=664275 n_nop=662145 n_act=22 n_pre=6 n_req=1563 n_rd=1078 n_write=1024 bw_util=0.006329
n_activity=11988 dram_eff=0.3507
bk0: 80a 662883i bk1: 80a 662840i bk2: 76a 662908i bk3: 72a 662871i bk4: 64a 663335i bk5: 68a 663270i bk6: 64a 664094i bk7: 64a 664080i bk8: 64a 664090i bk9: 64a 664074i bk10: 64a 664104i bk11: 64a 664103i bk12: 64a 663699i bk13: 62a 663634i bk14: 64a 662947i bk15: 64a 662880i 
dram_util_bins: 0 0 0 0 0 0 0 0 0 0
dram_eff_bins: 0 0 0 0 0 0 0 0 0 0
mrqq: max=16 avg=0.069831
Memory Partition 3: 
Cache L2_bank_006:
MSHR contents

Cache L2_bank_007:
MSHR contents

In Dram Latency Queue (total = 0): 
DRAM[3]: 16 bks, busW=4 BL=8 CL=12, tRRD=2 tCCD=6, tRCD=12 tRAS=28 tRP=12 tRC=40
n_cmd=664275 n_nop=662147 n_act=22 n_pre=6 n_req=1562 n_rd=1076 n_write=1024 bw_util=0.006323
n_activity=12098 dram_eff=0.3472
bk0: 80a 663007i bk1: 80a 662939i bk2: 76a 662979i bk3: 72a 662936i bk4: 64a 663319i bk5: 64a 663307i bk6: 64a 664092i bk7: 64a 664070i bk8: 64a 664100i bk9: 64a 664063i bk10: 64a 664097i bk11: 64a 664084i bk12: 64a 663722i bk13: 64a 663679i bk14: 64a 663046i bk15: 64a 663025i 
dram_util_bins: 0 0 0 0 0 0 0 0 0 0
dram_eff_bins: 0 0 0 0 0 0 0 0 0 0
mrqq: max=16 avg=0.0705777
Memory Partition 4: 
Cache L2_bank_008:
MSHR contents

Cache L2_bank_009:
MSHR contents

In Dram Latency Queue (total = 0): 
DRAM[4]: 16 bks, busW=4 BL=8 CL=12, tRRD=2 tCCD=6, tRCD=12 tRAS=28 tRP=12 tRC=40
n_cmd=664275 n_nop=662147 n_act=22 n_pre=6 n_req=1562 n_rd=1076 n_write=1024 bw_util=0.006323
n_activity=12091 dram_eff=0.3474
bk0: 80a 662969i bk1: 80a 662964i bk2: 76a 662984i bk3: 72a 662939i bk4: 64a 663302i bk5: 64a 663310i bk6: 64a 664094i bk7: 64a 664093i bk8: 64a 664102i bk9: 64a 664094i bk10: 64a 664111i bk11: 64a 664098i bk12: 64a 663676i bk13: 64a 663615i bk14: 64a 663064i bk15: 64a 662982i 
dram_util_bins: 0 0 0 0 0 0 0 0 0 0
dram_eff_bins: 0 0 0 0 0 0 0 0 0 0
mrqq: max=16 avg=0.07303
Memory Partition 5: 
Cache L2_bank_010:
MSHR contents

Cache L2_bank_011:
MSHR contents

In Dram Latency Queue (total = 0): 
DRAM[5]: 16 bks, busW=4 BL=8 CL=12, tRRD=2 tCCD=6, tRCD=12 tRAS=28 tRP=12 tRC=40
n_cmd=664275 n_nop=662149 n_act=22 n_pre=6 n_req=1561 n_rd=1074 n_write=1024 bw_util=0.006317
n_activity=11830 dram_eff=0.3547
bk0: 78a 662982i bk1: 80a 662895i bk2: 76a 663050i bk3: 72a 662931i bk4: 64a 663360i bk5: 64a 663382i bk6: 64a 664097i bk7: 64a 664094i bk8: 64a 664096i bk9: 64a 664087i bk10: 64a 664100i bk11: 64a 664093i bk12: 64a 663619i bk13: 64a 663572i bk14: 64a 662950i bk15: 64a 662879i 
dram_util_bins: 0 0 0 0 0 0 0 0 0 0
dram_eff_bins: 0 0 0 0 0 0 0 0 0 0
mrqq: max=16 avg=0.0729216

========= L2 cache stats =========
L2_cache_bank[0]: Access = 4954, Miss = 271, Miss_rate = 0.055, Pending_hits = 436, Reservation_fails = 2092
L2_cache_bank[1]: Access = 4730, Miss = 269, Miss_rate = 0.057, Pending_hits = 423, Reservation_fails = 1794
L2_cache_bank[2]: Access = 4878, Miss = 270, Miss_rate = 0.055, Pending_hits = 426, Reservation_fails = 1611
L2_cache_bank[3]: Access = 4492, Miss = 268, Miss_rate = 0.060, Pending_hits = 420, Reservation_fails = 1532
L2_cache_bank[4]: Access = 4922, Miss = 270, Miss_rate = 0.055, Pending_hits = 426, Reservation_fails = 1570
L2_cache_bank[5]: Access = 4553, Miss = 269, Miss_rate = 0.059, Pending_hits = 429, Reservation_fails = 1660
L2_cache_bank[6]: Access = 4878, Miss = 270, Miss_rate = 0.055, Pending_hits = 426, Reservation_fails = 1610
L2_cache_bank[7]: Access = 4492, Miss = 268, Miss_rate = 0.060, Pending_hits = 420, Reservation_fails = 1586
L2_cache_bank[8]: Access = 4942, Miss = 270, Miss_rate = 0.055, Pending_hits = 435, Reservation_fails = 1724
L2_cache_bank[9]: Access = 4535, Miss = 268, Miss_rate = 0.059, Pending_hits = 420, Reservation_fails = 1645
L2_cache_bank[10]: Access = 4685, Miss = 269, Miss_rate = 0.057, Pending_hits = 423, Reservation_fails = 1630
L2_cache_bank[11]: Access = 4492, Miss = 268, Miss_rate = 0.060, Pending_hits = 420, Reservation_fails = 1845
L2_total_cache_accesses = 56553
L2_total_cache_misses = 3230
L2_total_cache_miss_rate = 0.0571
L2_total_cache_pending_hits = 5104
L2_total_cache_reservation_fails = 20299
L2_total_cache_breakdown:
	L2_cache_stats_breakdown[GLOBAL_ACC_R][HIT] = 292
	L2_cache_stats_breakdown[GLOBAL_ACC_R][HIT_RESERVED] = 25
	L2_cache_stats_breakdown[GLOBAL_ACC_R][MISS] = 1537
	L2_cache_stats_breakdown[CONST_ACC_R][HIT] = 11
	L2_cache_stats_breakdown[CONST_ACC_R][HIT_RESERVED] = 3
	L2_cache_stats_breakdown[CONST_ACC_R][MISS] = 1
	L2_cache_stats_breakdown[CONST_ACC_R][RESERVATION_FAIL] = 109
	L2_cache_stats_breakdown[GLOBAL_ACC_W][HIT] = 18432
	L2_cache_stats_breakdown[GLOBAL_ACC_W][HIT_RESERVED] = 4608
	L2_cache_stats_breakdown[GLOBAL_ACC_W][MISS] = 1536
	L2_cache_stats_breakdown[GLOBAL_ACC_W][RESERVATION_FAIL] = 5738
	L2_cache_stats_breakdown[INST_ACC_R][HIT] = 29484
	L2_cache_stats_breakdown[INST_ACC_R][HIT_RESERVED] = 468
	L2_cache_stats_breakdown[INST_ACC_R][MISS] = 156
	L2_cache_stats_breakdown[INST_ACC_R][RESERVATION_FAIL] = 14452
L2_cache_data_port_util = 0.023
L2_cache_fill_port_util = 0.002

icnt_total_pkts_mem_to_simt=184431
icnt_total_pkts_simt_to_mem=81129
LD_mem_lat_dist  0 0 0 0 0 0 0 0 0 0 0 0 0 0 0 0 0 0 0 0 0 0 0 0 0 0 0
ST_mem_lat_dist  0 0 0 0 0 0 0 0 0 0 0 0 0 0 0 0 0 0 0 0 0 0 0 0 0 0 0
----------------------------Interconnect-DETAILS--------------------------------
Class 0:
Packet latency average = 14.9877
	minimum = 6
	maximum = 246
Network latency average = 11.5125
	minimum = 6
	maximum = 187
Slowest packet = 6257
Flit latency average = 9.2521
	minimum = 6
	maximum = 186
Slowest flit = 17487
Fragmentation average = 0
	minimum = 0
	maximum = 0
Injected packet rate average = 0.0083243
	minimum = 0.00700462 (at node 2)
	maximum = 0.00984423 (at node 15)
Accepted packet rate average = 0.0083243
	minimum = 0.00700462 (at node 2)
	maximum = 0.00984423 (at node 15)
Injected flit rate average = 0.0195445
	minimum = 0.0100569 (at node 2)
	maximum = 0.032883 (at node 15)
Accepted flit rate average= 0.0195445
	minimum = 0.0129958 (at node 18)
	maximum = 0.0247536 (at node 10)
Injected packet length average = 2.34789
Accepted packet length average = 2.34789
Total in-flight flits = 0 (0 measured)
====== Overall Traffic Statistics ======
====== Traffic class 0 ======
Packet latency average = 14.9877 (1 samples)
	minimum = 6 (1 samples)
	maximum = 246 (1 samples)
Network latency average = 11.5125 (1 samples)
	minimum = 6 (1 samples)
	maximum = 187 (1 samples)
Flit latency average = 9.2521 (1 samples)
	minimum = 6 (1 samples)
	maximum = 186 (1 samples)
Fragmentation average = 0 (1 samples)
	minimum = 0 (1 samples)
	maximum = 0 (1 samples)
Injected packet rate average = 0.0083243 (1 samples)
	minimum = 0.00700462 (1 samples)
	maximum = 0.00984423 (1 samples)
Accepted packet rate average = 0.0083243 (1 samples)
	minimum = 0.00700462 (1 samples)
	maximum = 0.00984423 (1 samples)
Injected flit rate average = 0.0195445 (1 samples)
	minimum = 0.0100569 (1 samples)
	maximum = 0.032883 (1 samples)
Accepted flit rate average = 0.0195445 (1 samples)
	minimum = 0.0129958 (1 samples)
	maximum = 0.0247536 (1 samples)
Injected packet size average = 2.34789 (1 samples)
Accepted packet size average = 2.34789 (1 samples)
Hops average = 1 (1 samples)
----------------------------END-of-Interconnect-DETAILS-------------------------


gpgpu_simulation_time = 0 days, 0 hrs, 29 min, 1 sec (1741 sec)
gpgpu_simulation_rate = 72217 (inst/sec)
gpgpu_simulation_rate = 289 (cycle/sec)
GPGPU-Sim: synchronize waiting for inactive GPU simulation
GPGPU-Sim API: Stream Manager State
GPGPU-Sim: detected inactive GPU simulation thread

== GPU Timing ==
GPU init                 : 0.008000
Host input buffer alloc  : 0.008000
-----
Host output buffer alloc : 0.002000
GPU memory alloc         : 0.003000
Data copy in             : 26.070999
Kernel execution         : 1740602.125000
Data copy out            : 51.699001
Last hasing stage        : 0.000000
GPU Proc. Time (gpu init and input alloc are not included):  1740679.875000 

== CPU Execution Context ==
Threads       : 128
Blocks        : 384
Total Threads : 49152
Total Size    : 196656
Chunk Size    : 52
Padding       : 0

CPU Processing time(ms):    28.611000 

Output size: 196608
Test PASSED
CPU GPU
FD FD
DD DD
2 2
F9 F9
