

        *** GPGPU-Sim Simulator Version 3.2.2  [build 0] ***


GPGPU-Sim PTX: simulation mode 0 (can change with PTX_SIM_MODE_FUNC environment variable:
               1=functional simulation only, 0=detailed performance simulator)
GPGPU-Sim: Configuration options:

-network_mode                           1 # Interconnection network mode
-inter_config_file   config_fermi_islip.icnt # Interconnection network config file
-gpgpu_ptx_use_cuobjdump                    1 # Use cuobjdump to extract ptx and sass from binaries
-gpgpu_experimental_lib_support                    0 # Try to extract code from cuda libraries [Broken because of unknown cudaGetExportTable]
-gpgpu_ptx_convert_to_ptxplus                    0 # Convert SASS (native ISA) to ptxplus and run ptxplus
-gpgpu_ptx_force_max_capability                   20 # Force maximum compute capability
-gpgpu_ptx_inst_debug_to_file                    0 # Dump executed instructions' debug information to file
-gpgpu_ptx_inst_debug_file       inst_debug.txt # Executed instructions' debug output file
-gpgpu_ptx_inst_debug_thread_uid                    1 # Thread UID for executed instructions' debug output
-gpgpu_simd_model                       1 # 1 = post-dominator
-gpgpu_shader_core_pipeline              1536:32 # shader core pipeline config, i.e., {<nthread>:<warpsize>}
-gpgpu_tex_cache:l1  4:128:24,L:R:m:N:L,F:128:4,128:2 # per-shader L1 texture cache  (READ-ONLY) config  {<nsets>:<bsize>:<assoc>,<rep>:<wr>:<alloc>:<wr_alloc>,<mshr>:<N>:<merge>,<mq>:<rf>}
-gpgpu_const_cache:l1 64:64:2,L:R:f:N:L,A:2:32,4 # per-shader L1 constant memory cache  (READ-ONLY) config  {<nsets>:<bsize>:<assoc>,<rep>:<wr>:<alloc>:<wr_alloc>,<mshr>:<N>:<merge>,<mq>} 
-gpgpu_cache:il1     4:128:4,L:R:f:N:L,A:2:32,4 # shader L1 instruction cache config  {<nsets>:<bsize>:<assoc>,<rep>:<wr>:<alloc>:<wr_alloc>,<mshr>:<N>:<merge>,<mq>} 
-gpgpu_cache:dl1     32:128:4,L:L:m:N:H,A:32:8,8 # per-shader L1 data cache config  {<nsets>:<bsize>:<assoc>,<rep>:<wr>:<alloc>:<wr_alloc>,<mshr>:<N>:<merge>,<mq> | none}
-gpgpu_cache:dl1PrefL1                 none # per-shader L1 data cache config  {<nsets>:<bsize>:<assoc>,<rep>:<wr>:<alloc>:<wr_alloc>,<mshr>:<N>:<merge>,<mq> | none}
-gpgpu_cache:dl1PreShared                 none # per-shader L1 data cache config  {<nsets>:<bsize>:<assoc>,<rep>:<wr>:<alloc>:<wr_alloc>,<mshr>:<N>:<merge>,<mq> | none}
-gmem_skip_L1D                          0 # global memory access skip L1D cache (implements -Xptxas -dlcm=cg, default=no skip)
-gpgpu_perfect_mem                      0 # enable perfect memory mode (no cache miss)
-n_regfile_gating_group                    4 # group of lanes that should be read/written together)
-gpgpu_clock_gated_reg_file                    0 # enable clock gated reg file for power calculations
-gpgpu_clock_gated_lanes                    0 # enable clock gated lanes for power calculations
-gpgpu_shader_registers                32768 # Number of registers per shader core. Limits number of concurrent CTAs. (default 8192)
-gpgpu_shader_cta                       8 # Maximum number of concurrent CTAs in shader (default 8)
-gpgpu_num_cta_barriers                   16 # Maximum number of named barriers per CTA (default 16)
-gpgpu_n_clusters                      15 # number of processing clusters
-gpgpu_n_cores_per_cluster                    1 # number of simd cores per cluster
-gpgpu_n_cluster_ejection_buffer_size                    8 # number of packets in ejection buffer
-gpgpu_n_ldst_response_buffer_size                    2 # number of response packets in ld/st unit ejection buffer
-gpgpu_shmem_size                   16384 # Size of shared memory per shader core (default 16kB)
-gpgpu_shmem_size                   49152 # Size of shared memory per shader core (default 16kB)
-gpgpu_shmem_size_PrefL1                16384 # Size of shared memory per shader core (default 16kB)
-gpgpu_shmem_size_PrefShared                16384 # Size of shared memory per shader core (default 16kB)
-gpgpu_shmem_num_banks                   32 # Number of banks in the shared memory in each shader core (default 16)
-gpgpu_shmem_limited_broadcast                    0 # Limit shared memory to do one broadcast per cycle (default on)
-gpgpu_shmem_warp_parts                    1 # Number of portions a warp is divided into for shared memory bank conflict check 
-gpgpu_warpdistro_shader                   -1 # Specify which shader core to collect the warp size distribution from
-gpgpu_warp_issue_shader                    0 # Specify which shader core to collect the warp issue distribution from
-gpgpu_local_mem_map                    1 # Mapping from local memory space address to simulated GPU physical address space (default = enabled)
-gpgpu_num_reg_banks                   16 # Number of register banks (default = 8)
-gpgpu_reg_bank_use_warp_id                    0 # Use warp ID in mapping registers to banks (default = off)
-gpgpu_operand_collector_num_units_sp                    6 # number of collector units (default = 4)
-gpgpu_operand_collector_num_units_sfu                    8 # number of collector units (default = 4)
-gpgpu_operand_collector_num_units_mem                    2 # number of collector units (default = 2)
-gpgpu_operand_collector_num_units_gen                    0 # number of collector units (default = 0)
-gpgpu_operand_collector_num_in_ports_sp                    2 # number of collector unit in ports (default = 1)
-gpgpu_operand_collector_num_in_ports_sfu                    1 # number of collector unit in ports (default = 1)
-gpgpu_operand_collector_num_in_ports_mem                    1 # number of collector unit in ports (default = 1)
-gpgpu_operand_collector_num_in_ports_gen                    0 # number of collector unit in ports (default = 0)
-gpgpu_operand_collector_num_out_ports_sp                    2 # number of collector unit in ports (default = 1)
-gpgpu_operand_collector_num_out_ports_sfu                    1 # number of collector unit in ports (default = 1)
-gpgpu_operand_collector_num_out_ports_mem                    1 # number of collector unit in ports (default = 1)
-gpgpu_operand_collector_num_out_ports_gen                    0 # number of collector unit in ports (default = 0)
-gpgpu_coalesce_arch                   13 # Coalescing arch (default = 13, anything else is off for now)
-gpgpu_num_sched_per_core                    1 # Number of warp schedulers per core
-gpgpu_max_insn_issue_per_warp                    1 # Max number of instructions that can be issued per warp in one cycle by scheduler
-gpgpu_simt_core_sim_order                    1 # Select the simulation order of cores in a cluster (0=Fix, 1=Round-Robin)
-gpgpu_pipeline_widths        2,1,1,2,1,1,2 # Pipeline widths ID_OC_SP,ID_OC_SFU,ID_OC_MEM,OC_EX_SP,OC_EX_SFU,OC_EX_MEM,EX_WB
-gpgpu_num_sp_units                     2 # Number of SP units (default=1)
-gpgpu_num_sfu_units                    1 # Number of SF units (default=1)
-gpgpu_num_mem_units                    1 # Number if ldst units (default=1) WARNING: not hooked up to anything
-gpgpu_scheduler                      gto # Scheduler configuration: < lrr | gto | two_level_active > If two_level_active:<num_active_warps>:<inner_prioritization>:<outer_prioritization>For complete list of prioritization values see shader.h enum scheduler_prioritization_typeDefault: gto
-gpgpu_dram_scheduler                    1 # 0 = fifo, 1 = FR-FCFS (defaul)
-gpgpu_dram_partition_queues              8:8:8:8 # i2$:$2d:d2$:$2i
-l2_ideal                               0 # Use a ideal L2 cache that always hit
-gpgpu_cache:dl2     64:128:8,L:B:m:W:L,A:32:4,4:0,32 # unified banked L2 data cache config  {<nsets>:<bsize>:<assoc>,<rep>:<wr>:<alloc>:<wr_alloc>,<mshr>:<N>:<merge>,<mq>}
-gpgpu_cache:dl2_texture_only                    0 # L2 cache used for texture only
-gpgpu_n_mem                            6 # number of memory modules (e.g. memory controllers) in gpu
-gpgpu_n_sub_partition_per_mchannel                    2 # number of memory subpartition in each memory module
-gpgpu_n_mem_per_ctrlr                    2 # number of memory chips per memory controller
-gpgpu_memlatency_stat                   14 # track and display latency statistics 0x2 enables MC, 0x4 enables queue logs
-gpgpu_frfcfs_dram_sched_queue_size                   16 # 0 = unlimited (default); # entries per chip
-gpgpu_dram_return_queue_size                  116 # 0 = unlimited (default); # entries per chip
-gpgpu_dram_buswidth                    4 # default = 4 bytes (8 bytes per cycle at DDR)
-gpgpu_dram_burst_length                    8 # Burst length of each DRAM request (default = 4 data bus cycle)
-dram_data_command_freq_ratio                    4 # Frequency ratio between DRAM data bus and command bus (default = 2 times, i.e. DDR)
-gpgpu_dram_timing_opt nbk=16:CCD=2:RRD=6:RCD=12:RAS=28:RP=12:RC=40: CL=12:WL=4:CDLR=5:WR=12:nbkgrp=4:CCDL=3:RTPL=2 # DRAM timing parameters = {nbk:tCCD:tRRD:tRCD:tRAS:tRP:tRC:CL:WL:tCDLR:tWR:nbkgrp:tCCDL:tRTPL}
-rop_latency                          120 # ROP queue latency (default 85)
-dram_latency                         100 # DRAM latency (default 30)
-gpgpu_mem_addr_mapping dramid@8;00000000.00000000.00000000.00000000.0000RRRR.RRRRRRRR.BBBCCCCB.CCSSSSSS # mapping memory address to dram model {dramid@<start bit>;<memory address map>}
-gpgpu_mem_addr_test                    0 # run sweep test to check address mapping for aliased address
-gpgpu_mem_address_mask                    1 # 0 = old addressing mask, 1 = new addressing mask, 2 = new add. mask + flipped bank sel and chip sel bits
-gpuwattch_xml_file  gpuwattch_gtx480.xml # GPUWattch XML file
-power_simulation_enabled                    1 # Turn on power simulator (1=On, 0=Off)
-power_per_cycle_dump                    0 # Dump detailed power output each cycle
-power_trace_enabled                    0 # produce a file for the power trace (1=On, 0=Off)
-power_trace_zlevel                     6 # Compression level of the power trace output log (0=no comp, 9=highest)
-steady_power_levels_enabled                    0 # produce a file for the steady power levels (1=On, 0=Off)
-steady_state_definition                  8:4 # allowed deviation:number of samples
-gpgpu_max_cycle                        0 # terminates gpu simulation early (0 = no limit)
-gpgpu_max_insn                         0 # terminates gpu simulation early (0 = no limit)
-gpgpu_max_cta                          0 # terminates gpu simulation early (0 = no limit)
-gpgpu_runtime_stat                   500 # display runtime statistics such as dram utilization {<freq>:<flag>}
-liveness_message_freq                    1 # Minimum number of seconds between simulation liveness messages (0 = always print)
-gpgpu_flush_l1_cache                    0 # Flush L1 cache at the end of each kernel call
-gpgpu_flush_l2_cache                    0 # Flush L2 cache at the end of each kernel call
-gpgpu_deadlock_detect                    1 # Stop the simulation at deadlock (1=on (default), 0=off)
-gpgpu_ptx_instruction_classification                    0 # if enabled will classify ptx instruction types per kernel (Max 255 kernels now)
-gpgpu_ptx_sim_mode                     0 # Select between Performance (default) or Functional simulation (1)
-gpgpu_clock_domains 700.0:700.0:700.0:924.0 # Clock Domain Frequencies in MhZ {<Core Clock>:<ICNT Clock>:<L2 Clock>:<DRAM Clock>}
-gpgpu_max_concurrent_kernel                    8 # maximum kernels that can run concurrently on GPU
-gpgpu_cflog_interval                    0 # Interval between each snapshot in control flow logger
-visualizer_enabled                     0 # Turn on visualizer output (1=On, 0=Off)
-visualizer_outputfile                 NULL # Specifies the output log file for visualizer
-visualizer_zlevel                      6 # Compression level of the visualizer output log (0=no comp, 9=highest)
-trace_enabled                          0 # Turn on traces
-trace_components                    none # comma seperated list of traces to enable. Complete list found in trace_streams.tup. Default none
-trace_sampling_core                    0 # The core which is printed using CORE_DPRINTF. Default 0
-trace_sampling_memory_partition                   -1 # The memory partition which is printed using MEMPART_DPRINTF. Default -1 (i.e. all)
-enable_ptx_file_line_stats                    1 # Turn on PTX source line statistic profiling. (1 = On)
-ptx_line_stats_filename gpgpu_inst_stats.txt # Output file for PTX source line statistics.
-save_embedded_ptx                      0 # saves ptx files embedded in binary as <n>.ptx
-keep                                   0 # keep intermediate files created by GPGPU-Sim when interfacing with external programs
-gpgpu_ptx_save_converted_ptxplus                    0 # Saved converted ptxplus to a file
-ptx_opcode_latency_int         4,13,4,5,145 # Opcode latencies for integers <ADD,MAX,MUL,MAD,DIV>Default 1,1,19,25,145
-ptx_opcode_latency_fp          4,13,4,5,39 # Opcode latencies for single precision floating points <ADD,MAX,MUL,MAD,DIV>Default 1,1,1,1,30
-ptx_opcode_latency_dp         8,19,8,8,330 # Opcode latencies for double precision floating points <ADD,MAX,MUL,MAD,DIV>Default 8,8,8,8,335
-ptx_opcode_initiation_int            1,2,2,1,8 # Opcode initiation intervals for integers <ADD,MAX,MUL,MAD,DIV>Default 1,1,4,4,32
-ptx_opcode_initiation_fp            1,2,1,1,4 # Opcode initiation intervals for single precision floating points <ADD,MAX,MUL,MAD,DIV>Default 1,1,1,1,5
-ptx_opcode_initiation_dp         8,16,8,8,130 # Opcode initiation intervals for double precision floating points <ADD,MAX,MUL,MAD,DIV>Default 8,8,8,8,130
DRAM Timing Options:
nbk                                    16 # number of banks
CCD                                     2 # column to column delay
RRD                                     6 # minimal delay between activation of rows in different banks
RCD                                    12 # row to column delay
RAS                                    28 # time needed to activate row
RP                                     12 # time needed to precharge (deactivate) row
RC                                     40 # row cycle time
CDLR                                    5 # switching from write to read (changes tWTR)
WR                                     12 # last data-in to row precharge
CL                                     12 # CAS latency
WL                                      4 # Write latency
nbkgrp                                  4 # number of bank groups
CCDL                                    3 # column to column delay between accesses to different bank groups
RTPL                                    2 # read to precharge delay between accesses to different bank groups
Total number of memory sub partition = 12
addr_dec_mask[CHIP]  = 0000000000000000 	high:64 low:0
addr_dec_mask[BK]    = 000000000000e100 	high:16 low:8
addr_dec_mask[ROW]   = 000000000fff0000 	high:28 low:16
addr_dec_mask[COL]   = 0000000000001eff 	high:13 low:0
addr_dec_mask[BURST] = 000000000000003f 	high:6 low:0
sub_partition_id_mask = 0000000000000100
GPGPU-Sim uArch: clock freqs: 700000000.000000:700000000.000000:700000000.000000:924000000.000000
GPGPU-Sim uArch: clock periods: 0.00000000142857142857:0.00000000142857142857:0.00000000142857142857:0.00000000108225108225
*** Initializing Memory Statistics ***
GPGPU-Sim uArch: interconnect node map (shaderID+MemID to icntID)
GPGPU-Sim uArch: Memory nodes ID start from index: 15
GPGPU-Sim uArch:    0   1   2   3   4
GPGPU-Sim uArch:    5   6   7   8   9
GPGPU-Sim uArch:   10  11  12  13  14
GPGPU-Sim uArch:   15  16  17  18  19
GPGPU-Sim uArch:   20  21  22  23  24
GPGPU-Sim uArch:   25  26
GPGPU-Sim uArch: interconnect node reverse map (icntID to shaderID+MemID)
GPGPU-Sim uArch: Memory nodes start from ID: 15
GPGPU-Sim uArch:    0   1   2   3   4
GPGPU-Sim uArch:    5   6   7   8   9
GPGPU-Sim uArch:   10  11  12  13  14
GPGPU-Sim uArch:   15  16  17  18  19
GPGPU-Sim uArch:   20  21  22  23  24
GPGPU-Sim uArch:   25  26
185d153370a1c7baba053f5ed71cf285  /home/kishore/project_source/gpu_class_proj/gpgpusim-benchmarks-master/bin/release/STO
GPGPU-Sim uArch: performance model initialization complete.
GPGPU-Sim PTX: __cudaRegisterFatBinary, fat_cubin_handle = 1, filename=main.cu
self exe links to: /home/kishore/project_source/gpu_class_proj/gpgpusim-benchmarks-master/bin/release/STO
Running md5sum using "md5sum /home/kishore/project_source/gpu_class_proj/gpgpusim-benchmarks-master/bin/release/STO "
Running cuobjdump using "$CUDA_INSTALL_PATH/bin/cuobjdump -ptx -elf -sass /home/kishore/project_source/gpu_class_proj/gpgpusim-benchmarks-master/bin/release/STO > _cuobjdump_complete_output_avo8AX"
Parsing file _cuobjdump_complete_output_avo8AX
######### cuobjdump parser ########
## Adding new section PTX
Adding ptx filename: _cuobjdump_1.ptx
Adding arch: sm_10
Adding identifier: main.cu
## Adding new section ELF
Adding arch: sm_10
Adding identifier: main.cu
## Adding new section ELF
Adding arch: sm_20
Adding identifier: main.cu
## Adding new section PTX
Adding ptx filename: _cuobjdump_2.ptx
Adding arch: sm_20
Adding identifier: main.cu
## Adding new section PTX
Adding ptx filename: _cuobjdump_3.ptx
Adding arch: sm_10
Adding identifier: storeGPU.cu
## Adding new section ELF
Adding arch: sm_10
Adding identifier: storeGPU.cu
## Adding new section ELF
Adding arch: sm_20
Adding identifier: storeGPU.cu
## Adding new section PTX
Adding ptx filename: _cuobjdump_4.ptx
Adding arch: sm_20
Adding identifier: storeGPU.cu
Done parsing!!!
GPGPU-Sim PTX: __cudaRegisterFatBinary, fat_cubin_handle = 2, filename=storeGPU.cu
GPGPU-Sim PTX: __cudaRegisterFunction _Z12sha1_overlapPhiiiiS_ : hostFun 0x0x407f90, fat_cubin_handle = 2
GPGPU-Sim PTX: allocating stack frame region for .param "__cudaretf__Z14macroRFunctioniPj" from 0x0 to 0x8
GPGPU-Sim PTX: allocating stack frame region for .param "__cudaparmf1__Z14macroRFunctioniPj" from 0x8 to 0xc
GPGPU-Sim PTX: allocating stack frame region for .param "__cudaparmf2__Z14macroRFunctioniPj" from 0xc to 0x14
GPGPU-Sim PTX: instruction assembly for function '_Z14macroRFunctioniPj'...   done.
GPGPU-Sim PTX: finding reconvergence points for '_Z14macroRFunctioniPj'...
GPGPU-Sim PTX: Finding dominators for '_Z14macroRFunctioniPj'...
GPGPU-Sim PTX: Finding immediate dominators for '_Z14macroRFunctioniPj'...
GPGPU-Sim PTX: Finding postdominators for '_Z14macroRFunctioniPj'...
GPGPU-Sim PTX: Finding immediate postdominators for '_Z14macroRFunctioniPj'...
GPGPU-Sim PTX: pre-decoding instructions for '_Z14macroRFunctioniPj'...
GPGPU-Sim PTX: reconvergence points for _Z14macroRFunctioniPj...
GPGPU-Sim PTX: ... end of reconvergence points for _Z14macroRFunctioniPj
GPGPU-Sim PTX: ... done pre-decoding instructions for '_Z14macroRFunctioniPj'.
GPGPU-Sim PTX: allocating shared region for "__cuda___cuda_local_var_36043_40_non_const_sharedMemory32" from 0x0 to 0x3f80 (shared memory space)
GPGPU-Sim PTX: instruction assembly for function '_Z3md5PhiiiS_'...   done.
GPGPU-Sim PTX: finding reconvergence points for '_Z3md5PhiiiS_'...
GPGPU-Sim PTX: Finding dominators for '_Z3md5PhiiiS_'...
GPGPU-Sim PTX: Finding immediate dominators for '_Z3md5PhiiiS_'...
GPGPU-Sim PTX: Finding postdominators for '_Z3md5PhiiiS_'...
GPGPU-Sim PTX: Finding immediate postdominators for '_Z3md5PhiiiS_'...
GPGPU-Sim PTX: pre-decoding instructions for '_Z3md5PhiiiS_'...
GPGPU-Sim PTX: reconvergence points for _Z3md5PhiiiS_...
GPGPU-Sim PTX:  1 (potential) branch divergence @  PC=0x190 (_2.ptx:127) @%p1 bra $Lt_1_4866;
GPGPU-Sim PTX:    immediate post dominator      @  PC=0x21f0 (_2.ptx:1283) exit;
GPGPU-Sim PTX:  2 (potential) branch divergence @  PC=0x198 (_2.ptx:128) bra.uni $LBB20__Z3md5PhiiiS_;
GPGPU-Sim PTX:    immediate post dominator      @  PC=0x21f0 (_2.ptx:1283) exit;
GPGPU-Sim PTX:  3 (potential) branch divergence @  PC=0x1f0 (_2.ptx:141) @%p3 bra $Lt_1_5634;
GPGPU-Sim PTX:    immediate post dominator      @  PC=0x290 (_2.ptx:167) shr.s32 %r23, %r15, 31;
GPGPU-Sim PTX:  4 (potential) branch divergence @  PC=0x200 (_2.ptx:143) @!%p2 bra $Lt_1_5378;
GPGPU-Sim PTX:    immediate post dominator      @  PC=0x290 (_2.ptx:167) shr.s32 %r23, %r15, 31;
GPGPU-Sim PTX:  5 (potential) branch divergence @  PC=0x278 (_2.ptx:161) @%p4 bra $Lt_1_6402;
GPGPU-Sim PTX:    immediate post dominator      @  PC=0x280 (_2.ptx:162) bra.uni $Lt_1_5378;
GPGPU-Sim PTX:  6 (potential) branch divergence @  PC=0x280 (_2.ptx:162) bra.uni $Lt_1_5378;
GPGPU-Sim PTX:    immediate post dominator      @  PC=0x290 (_2.ptx:167) shr.s32 %r23, %r15, 31;
GPGPU-Sim PTX:  7 (potential) branch divergence @  PC=0x2d0 (_2.ptx:175) @%p5 bra $Lt_1_8706;
GPGPU-Sim PTX:    immediate post dominator      @  PC=0x2198 (_2.ptx:1270) mul.lo.s32 %r234, %r5, 4;
GPGPU-Sim PTX:  8 (potential) branch divergence @  PC=0x4e8 (_2.ptx:257) @%p6 bra $Lt_1_7938;
GPGPU-Sim PTX:    immediate post dominator      @  PC=0x560 (_2.ptx:281) ld.shared.u8 %r69, [%rd20+0];
GPGPU-Sim PTX:  9 (potential) branch divergence @  PC=0x520 (_2.ptx:267) bra.uni $Lt_1_7682;
GPGPU-Sim PTX:    immediate post dominator      @  PC=0x560 (_2.ptx:281) ld.shared.u8 %r69, [%rd20+0];
GPGPU-Sim PTX: 10 (potential) branch divergence @  PC=0x2180 (_2.ptx:1264) @%p7 bra $Lt_1_7426;
GPGPU-Sim PTX:    immediate post dominator      @  PC=0x2188 (_2.ptx:1265) bra.uni $Lt_1_6914;
GPGPU-Sim PTX: 11 (potential) branch divergence @  PC=0x2188 (_2.ptx:1265) bra.uni $Lt_1_6914;
GPGPU-Sim PTX:    immediate post dominator      @  PC=0x2198 (_2.ptx:1270) mul.lo.s32 %r234, %r5, 4;
GPGPU-Sim PTX: ... end of reconvergence points for _Z3md5PhiiiS_
GPGPU-Sim PTX: ... done pre-decoding instructions for '_Z3md5PhiiiS_'.
GPGPU-Sim PTX: allocating shared region for "__cuda___cuda_local_var_36078_40_non_const_sharedMemory16320" from 0x0 to 0x3f80 (shared memory space)
GPGPU-Sim PTX: instruction assembly for function '_Z11md5_overlapPhiiiiS_'...   done.
GPGPU-Sim PTX: finding reconvergence points for '_Z11md5_overlapPhiiiiS_'...
GPGPU-Sim PTX: Finding dominators for '_Z11md5_overlapPhiiiiS_'...
GPGPU-Sim PTX: Finding immediate dominators for '_Z11md5_overlapPhiiiiS_'...
GPGPU-Sim PTX: Finding postdominators for '_Z11md5_overlapPhiiiiS_'...
GPGPU-Sim PTX: Finding immediate postdominators for '_Z11md5_overlapPhiiiiS_'...
GPGPU-Sim PTX: pre-decoding instructions for '_Z11md5_overlapPhiiiiS_'...
GPGPU-Sim PTX: reconvergence points for _Z11md5_overlapPhiiiiS_...
GPGPU-Sim PTX:  1 (potential) branch divergence @  PC=0x2230 (_2.ptx:1308) @%p1 bra $Lt_2_5634;
GPGPU-Sim PTX:    immediate post dominator      @  PC=0x43e8 (_2.ptx:2510) exit;
GPGPU-Sim PTX:  2 (potential) branch divergence @  PC=0x2238 (_2.ptx:1309) bra.uni $LBB23__Z11md5_overlapPhiiiiS_;
GPGPU-Sim PTX:    immediate post dominator      @  PC=0x43e8 (_2.ptx:2510) exit;
GPGPU-Sim PTX:  3 (potential) branch divergence @  PC=0x22b0 (_2.ptx:1326) @%p3 bra $Lt_2_9730;
GPGPU-Sim PTX:    immediate post dominator      @  PC=0x4390 (_2.ptx:2497) mul.lo.s32 %r260, %r5, 4;
GPGPU-Sim PTX:  4 (potential) branch divergence @  PC=0x2440 (_2.ptx:1378) @%p4 bra $Lt_2_7170;
GPGPU-Sim PTX:    immediate post dominator      @  PC=0x2768 (_2.ptx:1510) ld.shared.u8 %r95, [%rd15+0];
GPGPU-Sim PTX:  5 (potential) branch divergence @  PC=0x2488 (_2.ptx:1387) @%p5 bra $Lt_2_9986;
GPGPU-Sim PTX:    immediate post dominator      @  PC=0x2520 (_2.ptx:1411) mov.s32 %r62, 13;
GPGPU-Sim PTX:  6 (potential) branch divergence @  PC=0x2500 (_2.ptx:1405) @%p6 bra $Lt_2_7938;
GPGPU-Sim PTX:    immediate post dominator      @  PC=0x2508 (_2.ptx:1406) mov.s32 %r61, %r52;
GPGPU-Sim PTX:  7 (potential) branch divergence @  PC=0x2510 (_2.ptx:1407) bra.uni $Lt_2_7426;
GPGPU-Sim PTX:    immediate post dominator      @  PC=0x2520 (_2.ptx:1411) mov.s32 %r62, 13;
GPGPU-Sim PTX:  8 (potential) branch divergence @  PC=0x2540 (_2.ptx:1415) @%p7 bra $Lt_2_8450;
GPGPU-Sim PTX:    immediate post dominator      @  PC=0x25e0 (_2.ptx:1440) mov.u32 %r72, 128;
GPGPU-Sim PTX:  9 (potential) branch divergence @  PC=0x25d8 (_2.ptx:1437) @%p8 bra $Lt_2_8962;
GPGPU-Sim PTX:    immediate post dominator      @  PC=0x25e0 (_2.ptx:1440) mov.u32 %r72, 128;
GPGPU-Sim PTX: 10 (potential) branch divergence @  PC=0x2640 (_2.ptx:1454) bra.uni $Lt_2_6914;
GPGPU-Sim PTX:    immediate post dominator      @  PC=0x2768 (_2.ptx:1510) ld.shared.u8 %r95, [%rd15+0];
GPGPU-Sim PTX: 11 (potential) branch divergence @  PC=0x4378 (_2.ptx:2491) @%p9 bra $Lt_2_6658;
GPGPU-Sim PTX:    immediate post dominator      @  PC=0x4380 (_2.ptx:2492) bra.uni $Lt_2_6146;
GPGPU-Sim PTX: 12 (potential) branch divergence @  PC=0x4380 (_2.ptx:2492) bra.uni $Lt_2_6146;
GPGPU-Sim PTX:    immediate post dominator      @  PC=0x4390 (_2.ptx:2497) mul.lo.s32 %r260, %r5, 4;
GPGPU-Sim PTX: ... end of reconvergence points for _Z11md5_overlapPhiiiiS_
GPGPU-Sim PTX: ... done pre-decoding instructions for '_Z11md5_overlapPhiiiiS_'.
GPGPU-Sim PTX: allocating shared region for "__cuda___cuda_local_var_36930_40_non_const_sharedMemory32608" from 0x0 to 0x3f80 (shared memory space)
GPGPU-Sim PTX: instruction assembly for function '_Z4sha1PhiiiS_'...   done.
GPGPU-Sim PTX: finding reconvergence points for '_Z4sha1PhiiiS_'...
GPGPU-Sim PTX: Finding dominators for '_Z4sha1PhiiiS_'...
GPGPU-Sim PTX: Finding immediate dominators for '_Z4sha1PhiiiS_'...
GPGPU-Sim PTX: Finding postdominators for '_Z4sha1PhiiiS_'...
GPGPU-Sim PTX: Finding immediate postdominators for '_Z4sha1PhiiiS_'...
GPGPU-Sim PTX: pre-decoding instructions for '_Z4sha1PhiiiS_'...
GPGPU-Sim PTX: reconvergence points for _Z4sha1PhiiiS_...
GPGPU-Sim PTX:  1 (potential) branch divergence @  PC=0x4428 (_2.ptx:2534) @%p1 bra $Lt_3_4866;
GPGPU-Sim PTX:    immediate post dominator      @  PC=0x9018 (_2.ptx:5165) exit;
GPGPU-Sim PTX:  2 (potential) branch divergence @  PC=0x4430 (_2.ptx:2535) bra.uni $LBB20__Z4sha1PhiiiS_;
GPGPU-Sim PTX:    immediate post dominator      @  PC=0x9018 (_2.ptx:5165) exit;
GPGPU-Sim PTX:  3 (potential) branch divergence @  PC=0x4488 (_2.ptx:2548) @%p3 bra $Lt_3_5634;
GPGPU-Sim PTX:    immediate post dominator      @  PC=0x4528 (_2.ptx:2574) shr.u32 %r23, %r15, 6;
GPGPU-Sim PTX:  4 (potential) branch divergence @  PC=0x4498 (_2.ptx:2550) @!%p2 bra $Lt_3_5378;
GPGPU-Sim PTX:    immediate post dominator      @  PC=0x4528 (_2.ptx:2574) shr.u32 %r23, %r15, 6;
GPGPU-Sim PTX:  5 (potential) branch divergence @  PC=0x4510 (_2.ptx:2568) @%p4 bra $Lt_3_6402;
GPGPU-Sim PTX:    immediate post dominator      @  PC=0x4518 (_2.ptx:2569) bra.uni $Lt_3_5378;
GPGPU-Sim PTX:  6 (potential) branch divergence @  PC=0x4518 (_2.ptx:2569) bra.uni $Lt_3_5378;
GPGPU-Sim PTX:    immediate post dominator      @  PC=0x4528 (_2.ptx:2574) shr.u32 %r23, %r15, 6;
GPGPU-Sim PTX:  7 (potential) branch divergence @  PC=0x4548 (_2.ptx:2578) @%p5 bra $Lt_3_8706;
GPGPU-Sim PTX:    immediate post dominator      @  PC=0x8fc0 (_2.ptx:5152) mul.lo.s32 %r748, %r5, 4;
GPGPU-Sim PTX:  8 (potential) branch divergence @  PC=0x4730 (_2.ptx:2654) @%p6 bra $Lt_3_7938;
GPGPU-Sim PTX:    immediate post dominator      @  PC=0x4820 (_2.ptx:2693) ld.shared.u8 %r69, [%rd21+3];
GPGPU-Sim PTX:  9 (potential) branch divergence @  PC=0x47e0 (_2.ptx:2679) bra.uni $Lt_3_7682;
GPGPU-Sim PTX:    immediate post dominator      @  PC=0x4820 (_2.ptx:2693) ld.shared.u8 %r69, [%rd21+3];
GPGPU-Sim PTX: 10 (potential) branch divergence @  PC=0x8fa8 (_2.ptx:5146) @%p7 bra $Lt_3_7426;
GPGPU-Sim PTX:    immediate post dominator      @  PC=0x8fb0 (_2.ptx:5147) bra.uni $Lt_3_6914;
GPGPU-Sim PTX: 11 (potential) branch divergence @  PC=0x8fb0 (_2.ptx:5147) bra.uni $Lt_3_6914;
GPGPU-Sim PTX:    immediate post dominator      @  PC=0x8fc0 (_2.ptx:5152) mul.lo.s32 %r748, %r5, 4;
GPGPU-Sim PTX: ... end of reconvergence points for _Z4sha1PhiiiS_
GPGPU-Sim PTX: ... done pre-decoding instructions for '_Z4sha1PhiiiS_'.
GPGPU-Sim PTX: allocating shared region for "__cuda___cuda_local_var_36962_40_non_const_sharedMemory48896" from 0x0 to 0x3f80 (shared memory space)
GPGPU-Sim PTX: instruction assembly for function '_Z12sha1_overlapPhiiiiS_'...   done.
GPGPU-Sim PTX: finding reconvergence points for '_Z12sha1_overlapPhiiiiS_'...
GPGPU-Sim PTX: Finding dominators for '_Z12sha1_overlapPhiiiiS_'...
GPGPU-Sim PTX: Finding immediate dominators for '_Z12sha1_overlapPhiiiiS_'...
GPGPU-Sim PTX: Finding postdominators for '_Z12sha1_overlapPhiiiiS_'...
GPGPU-Sim PTX: Finding immediate postdominators for '_Z12sha1_overlapPhiiiiS_'...
GPGPU-Sim PTX: pre-decoding instructions for '_Z12sha1_overlapPhiiiiS_'...
GPGPU-Sim PTX: reconvergence points for _Z12sha1_overlapPhiiiiS_...
GPGPU-Sim PTX:  1 (potential) branch divergence @  PC=0x9058 (_2.ptx:5190) @%p1 bra $Lt_4_5634;
GPGPU-Sim PTX:    immediate post dominator      @  PC=0xde28 (_2.ptx:7884) exit;
GPGPU-Sim PTX:  2 (potential) branch divergence @  PC=0x9060 (_2.ptx:5191) bra.uni $LBB23__Z12sha1_overlapPhiiiiS_;
GPGPU-Sim PTX:    immediate post dominator      @  PC=0xde28 (_2.ptx:7884) exit;
GPGPU-Sim PTX:  3 (potential) branch divergence @  PC=0x90b8 (_2.ptx:5204) @%p3 bra $Lt_4_9730;
GPGPU-Sim PTX:    immediate post dominator      @  PC=0xddd0 (_2.ptx:7871) mul.lo.s32 %r783, %r5, 4;
GPGPU-Sim PTX:  4 (potential) branch divergence @  PC=0x9288 (_2.ptx:5264) @%p4 bra $Lt_4_7170;
GPGPU-Sim PTX:    immediate post dominator      @  PC=0x9628 (_2.ptx:5411) ld.shared.u8 %r101, [%rd15+3];
GPGPU-Sim PTX:  5 (potential) branch divergence @  PC=0x92d0 (_2.ptx:5273) @%p5 bra $Lt_4_9986;
GPGPU-Sim PTX:    immediate post dominator      @  PC=0x9368 (_2.ptx:5297) mov.s32 %r59, 13;
GPGPU-Sim PTX:  6 (potential) branch divergence @  PC=0x9348 (_2.ptx:5291) @%p6 bra $Lt_4_7938;
GPGPU-Sim PTX:    immediate post dominator      @  PC=0x9350 (_2.ptx:5292) mov.s32 %r58, %r49;
GPGPU-Sim PTX:  7 (potential) branch divergence @  PC=0x9358 (_2.ptx:5293) bra.uni $Lt_4_7426;
GPGPU-Sim PTX:    immediate post dominator      @  PC=0x9368 (_2.ptx:5297) mov.s32 %r59, 13;
GPGPU-Sim PTX:  8 (potential) branch divergence @  PC=0x9388 (_2.ptx:5301) @%p7 bra $Lt_4_8450;
GPGPU-Sim PTX:    immediate post dominator      @  PC=0x9428 (_2.ptx:5326) mov.u32 %r69, 128;
GPGPU-Sim PTX:  9 (potential) branch divergence @  PC=0x9420 (_2.ptx:5323) @%p8 bra $Lt_4_8962;
GPGPU-Sim PTX:    immediate post dominator      @  PC=0x9428 (_2.ptx:5326) mov.u32 %r69, 128;
GPGPU-Sim PTX: 10 (potential) branch divergence @  PC=0x9500 (_2.ptx:5355) bra.uni $Lt_4_6914;
GPGPU-Sim PTX:    immediate post dominator      @  PC=0x9628 (_2.ptx:5411) ld.shared.u8 %r101, [%rd15+3];
GPGPU-Sim PTX: 11 (potential) branch divergence @  PC=0xddb8 (_2.ptx:7865) @%p9 bra $Lt_4_6658;
GPGPU-Sim PTX:    immediate post dominator      @  PC=0xddc0 (_2.ptx:7866) bra.uni $Lt_4_6146;
GPGPU-Sim PTX: 12 (potential) branch divergence @  PC=0xddc0 (_2.ptx:7866) bra.uni $Lt_4_6146;
GPGPU-Sim PTX:    immediate post dominator      @  PC=0xddd0 (_2.ptx:7871) mul.lo.s32 %r783, %r5, 4;
GPGPU-Sim PTX: ... end of reconvergence points for _Z12sha1_overlapPhiiiiS_
GPGPU-Sim PTX: ... done pre-decoding instructions for '_Z12sha1_overlapPhiiiiS_'.
GPGPU-Sim PTX: allocating global region for "md5_padding" from 0x100 to 0x140 (global memory space)
GPGPU-Sim PTX: allocating global region for "sha1_padding" from 0x140 to 0x180 (global memory space)
GPGPU-Sim PTX: finished parsing EMBEDDED .ptx file _2.ptx
Adding _cuobjdump_4.ptx with cubin handle 2
GPGPU-Sim PTX: extracting embedded .ptx to temporary file "_ptx_zjJZSI"
Running: cat _ptx_zjJZSI | sed 's/.version 1.5/.version 1.4/' | sed 's/, texmode_independent//' | sed 's/\(\.extern \.const\[1\] .b8 \w\+\)\[\]/\1\[1\]/' | sed 's/const\[.\]/const\[0\]/g' > _ptx2_iaoVau
GPGPU-Sim PTX: generating ptxinfo using "$CUDA_INSTALL_PATH/bin/ptxas --gpu-name=sm_20 -v _ptx2_iaoVau --output-file  /dev/null 2> _ptx_zjJZSIinfo"
GPGPU-Sim PTX: Kernel '_Z12sha1_overlapPhiiiiS_' : regs=47, lmem=0, smem=16256, cmem=80
GPGPU-Sim PTX: Kernel '_Z4sha1PhiiiS_' : regs=45, lmem=0, smem=16256, cmem=80
GPGPU-Sim PTX: Kernel '_Z11md5_overlapPhiiiiS_' : regs=42, lmem=0, smem=16256, cmem=80
GPGPU-Sim PTX: Kernel '_Z3md5PhiiiS_' : regs=42, lmem=0, smem=16256, cmem=80
GPGPU-Sim PTX: removing ptxinfo using "rm -f _ptx_zjJZSI _ptx2_iaoVau _ptx_zjJZSIinfo"
GPGPU-Sim PTX: loading globals with explicit initializers... 
GPGPU-Sim PTX:     initializing 'md5_padding' ...  wrote 64 bytes
GPGPU-Sim PTX:     initializing 'sha1_padding' ...  wrote 64 bytes
GPGPU-Sim PTX: finished loading globals (128 bytes total).
GPGPU-Sim PTX: loading constants with explicit initializers...  done.
GPGPU-Sim PTX: __cudaRegisterFunction _Z4sha1PhiiiS_ : hostFun 0x0x408050, fat_cubin_handle = 2
GPGPU-Sim PTX: __cudaRegisterFunction _Z11md5_overlapPhiiiiS_ : hostFun 0x0x408140, fat_cubin_handle = 2
GPGPU-Sim PTX: __cudaRegisterFunction _Z3md5PhiiiS_ : hostFun 0x0x408200, fat_cubin_handle = 2
GPGPU-Sim PTX: __cudaRegisterVar: hostVar = 0x6ad440; deviceAddress = md5_padding; deviceName = md5_padding
GPGPU-Sim PTX: __cudaRegisterVar: Registering const memory space of 64 bytes
GPGPU-Sim PTX registering global md5_padding hostVar to name mapping
GPGPU-Sim PTX: __cudaRegisterVar: hostVar = 0x6ad480; deviceAddress = sha1_padding; deviceName = sha1_padding
GPGPU-Sim PTX: __cudaRegisterVar: Registering const memory space of 64 bytes
GPGPU-Sim PTX registering global sha1_padding hostVar to name mapping
Shared Memory Enabled
Pinned Memory Enabled
Reduced Hash Size Enabled
Running SHA1 Overlap Test..
SHA1 Overlap Test


== GPU Execution Context ==
Threads       : 128
Blocks        : 384
Total Threads : 49152
Total size    : 196656
Chunk Size    : 52
Padding       : 0


GPGPU-Sim PTX: cudaLaunch for 0x0x407f90 (mode=performance simulation) on stream 0
GPGPU-Sim PTX: pushing kernel '_Z12sha1_overlapPhiiiiS_' to stream 0, gridDim= (384,1,1) blockDim = (128,1,1) 
kernel '_Z12sha1_overlapPhiiiiS_' transfer to GPU hardware scheduler
GPGPU-Sim uArch: Shader 1 bind to kernel 1 '_Z12sha1_overlapPhiiiiS_'
GPGPU-Sim uArch: CTA/core = 3, limited by: shmem
GPGPU-Sim uArch: core:  1, cta: 0 initialized @(1,0)
GPGPU-Sim uArch: Shader 2 bind to kernel 1 '_Z12sha1_overlapPhiiiiS_'
GPGPU-Sim uArch: core:  2, cta: 0 initialized @(1,0)
GPGPU-Sim uArch: Shader 3 bind to kernel 1 '_Z12sha1_overlapPhiiiiS_'
GPGPU-Sim uArch: core:  3, cta: 0 initialized @(1,0)
GPGPU-Sim uArch: Shader 4 bind to kernel 1 '_Z12sha1_overlapPhiiiiS_'
GPGPU-Sim uArch: core:  4, cta: 0 initialized @(1,0)
GPGPU-Sim uArch: Shader 5 bind to kernel 1 '_Z12sha1_overlapPhiiiiS_'
GPGPU-Sim uArch: core:  5, cta: 0 initialized @(1,0)
GPGPU-Sim uArch: Shader 6 bind to kernel 1 '_Z12sha1_overlapPhiiiiS_'
GPGPU-Sim uArch: core:  6, cta: 0 initialized @(1,0)
GPGPU-Sim uArch: Shader 7 bind to kernel 1 '_Z12sha1_overlapPhiiiiS_'
GPGPU-Sim uArch: core:  7, cta: 0 initialized @(1,0)
GPGPU-Sim uArch: Shader 8 bind to kernel 1 '_Z12sha1_overlapPhiiiiS_'
GPGPU-Sim uArch: core:  8, cta: 0 initialized @(1,0)
GPGPU-Sim uArch: Shader 9 bind to kernel 1 '_Z12sha1_overlapPhiiiiS_'
GPGPU-Sim uArch: core:  9, cta: 0 initialized @(1,0)
GPGPU-Sim uArch: Shader 10 bind to kernel 1 '_Z12sha1_overlapPhiiiiS_'
GPGPU-Sim uArch: core: 10, cta: 0 initialized @(1,0)
GPGPU-Sim uArch: Shader 11 bind to kernel 1 '_Z12sha1_overlapPhiiiiS_'
GPGPU-Sim uArch: core: 11, cta: 0 initialized @(1,0)
GPGPU-Sim uArch: Shader 12 bind to kernel 1 '_Z12sha1_overlapPhiiiiS_'
GPGPU-Sim uArch: core: 12, cta: 0 initialized @(1,0)
GPGPU-Sim uArch: Shader 13 bind to kernel 1 '_Z12sha1_overlapPhiiiiS_'
GPGPU-Sim uArch: core: 13, cta: 0 initialized @(1,0)
GPGPU-Sim uArch: Shader 14 bind to kernel 1 '_Z12sha1_overlapPhiiiiS_'
GPGPU-Sim uArch: core: 14, cta: 0 initialized @(1,0)
GPGPU-Sim uArch: Shader 0 bind to kernel 1 '_Z12sha1_overlapPhiiiiS_'
GPGPU-Sim uArch: core:  0, cta: 0 initialized @(1,0)
GPGPU-Sim uArch: core:  1, cta: 1 initialized @(2,0)
GPGPU-Sim uArch: core:  2, cta: 1 initialized @(2,0)
GPGPU-Sim uArch: core:  3, cta: 1 initialized @(2,0)
GPGPU-Sim uArch: core:  4, cta: 1 initialized @(2,0)
GPGPU-Sim uArch: core:  5, cta: 1 initialized @(2,0)
GPGPU-Sim uArch: core:  6, cta: 1 initialized @(2,0)
GPGPU-Sim uArch: core:  7, cta: 1 initialized @(2,0)
GPGPU-Sim uArch: core:  8, cta: 1 initialized @(2,0)
GPGPU-Sim uArch: core:  9, cta: 1 initialized @(2,0)
GPGPU-Sim uArch: core: 10, cta: 1 initialized @(2,0)
GPGPU-Sim uArch: core: 11, cta: 1 initialized @(2,0)
GPGPU-Sim uArch: core: 12, cta: 1 initialized @(2,0)
GPGPU-Sim uArch: core: 13, cta: 1 initialized @(2,0)
GPGPU-Sim uArch: core: 14, cta: 1 initialized @(2,0)
GPGPU-Sim uArch: core:  0, cta: 1 initialized @(2,0)
GPGPU-Sim uArch: core:  1, cta: 2 initialized @(3,0)
GPGPU-Sim uArch: core:  2, cta: 2 initialized @(3,0)
GPGPU-Sim uArch: core:  3, cta: 2 initialized @(3,0)
GPGPU-Sim uArch: core:  4, cta: 2 initialized @(3,0)
GPGPU-Sim uArch: core:  5, cta: 2 initialized @(3,0)
GPGPU-Sim uArch: core:  6, cta: 2 initialized @(3,0)
GPGPU-Sim uArch: core:  7, cta: 2 initialized @(3,0)
GPGPU-Sim uArch: core:  8, cta: 2 initialized @(3,0)
GPGPU-Sim uArch: core:  9, cta: 2 initialized @(3,0)
GPGPU-Sim uArch: core: 10, cta: 2 initialized @(3,0)
GPGPU-Sim uArch: core: 11, cta: 2 initialized @(3,0)
GPGPU-Sim uArch: core: 12, cta: 2 initialized @(3,0)
GPGPU-Sim uArch: core: 13, cta: 2 initialized @(3,0)
GPGPU-Sim uArch: core: 14, cta: 2 initialized @(3,0)
GPGPU-Sim uArch: core:  0, cta: 2 initialized @(3,0)
GPGPU-Sim uArch: cycles simulated: 500  inst.: 28800 (ipc=57.6) sim_rate=14400 (inst/sec) elapsed = 0:0:00:02 / Tue May 12 20:33:31 2015
GPGPU-Sim PTX: 100000 instructions simulated : ctaid=(18,0,0) tid=(31,0,0)
GPGPU-Sim uArch: cycles simulated: 1000  inst.: 102400 (ipc=102.4) sim_rate=34133 (inst/sec) elapsed = 0:0:00:03 / Tue May 12 20:33:32 2015
GPGPU-Sim PTX: 200000 instructions simulated : ctaid=(8,0,0) tid=(127,0,0)
GPGPU-Sim uArch: cycles simulated: 1500  inst.: 246016 (ipc=164.0) sim_rate=61504 (inst/sec) elapsed = 0:0:00:04 / Tue May 12 20:33:33 2015
GPGPU-Sim PTX: 300000 instructions simulated : ctaid=(28,0,0) tid=(31,0,0)
GPGPU-Sim uArch: cycles simulated: 2000  inst.: 371648 (ipc=185.8) sim_rate=61941 (inst/sec) elapsed = 0:0:00:06 / Tue May 12 20:33:35 2015
GPGPU-Sim PTX: 400000 instructions simulated : ctaid=(12,0,0) tid=(95,0,0)
GPGPU-Sim uArch: cycles simulated: 2500  inst.: 483840 (ipc=193.5) sim_rate=69120 (inst/sec) elapsed = 0:0:00:07 / Tue May 12 20:33:36 2015
GPGPU-Sim PTX: 500000 instructions simulated : ctaid=(18,0,0) tid=(127,0,0)
GPGPU-Sim uArch: cycles simulated: 3000  inst.: 560672 (ipc=186.9) sim_rate=70084 (inst/sec) elapsed = 0:0:00:08 / Tue May 12 20:33:37 2015
GPGPU-Sim PTX: 600000 instructions simulated : ctaid=(41,0,0) tid=(95,0,0)
GPGPU-Sim PTX: 700000 instructions simulated : ctaid=(28,0,0) tid=(95,0,0)
GPGPU-Sim uArch: cycles simulated: 3500  inst.: 718368 (ipc=205.2) sim_rate=71836 (inst/sec) elapsed = 0:0:00:10 / Tue May 12 20:33:39 2015
GPGPU-Sim PTX: 800000 instructions simulated : ctaid=(3,0,0) tid=(63,0,0)
GPGPU-Sim PTX: 900000 instructions simulated : ctaid=(8,0,0) tid=(63,0,0)
GPGPU-Sim uArch: cycles simulated: 4000  inst.: 958144 (ipc=239.5) sim_rate=79845 (inst/sec) elapsed = 0:0:00:12 / Tue May 12 20:33:41 2015
GPGPU-Sim PTX: 1000000 instructions simulated : ctaid=(13,0,0) tid=(95,0,0)
GPGPU-Sim PTX: 1100000 instructions simulated : ctaid=(27,0,0) tid=(31,0,0)
GPGPU-Sim PTX: 1200000 instructions simulated : ctaid=(27,0,0) tid=(31,0,0)
GPGPU-Sim uArch: cycles simulated: 4500  inst.: 1192000 (ipc=264.9) sim_rate=79466 (inst/sec) elapsed = 0:0:00:15 / Tue May 12 20:33:44 2015
GPGPU-Sim PTX: 1300000 instructions simulated : ctaid=(35,0,0) tid=(63,0,0)
GPGPU-Sim PTX: 1400000 instructions simulated : ctaid=(19,0,0) tid=(31,0,0)
GPGPU-Sim uArch: cycles simulated: 5000  inst.: 1384160 (ipc=276.8) sim_rate=81421 (inst/sec) elapsed = 0:0:00:17 / Tue May 12 20:33:46 2015
GPGPU-Sim PTX: 1500000 instructions simulated : ctaid=(4,0,0) tid=(63,0,0)
GPGPU-Sim uArch: cycles simulated: 5500  inst.: 1569152 (ipc=285.3) sim_rate=82586 (inst/sec) elapsed = 0:0:00:19 / Tue May 12 20:33:48 2015
GPGPU-Sim PTX: 1600000 instructions simulated : ctaid=(31,0,0) tid=(95,0,0)
GPGPU-Sim PTX: 1700000 instructions simulated : ctaid=(25,0,0) tid=(63,0,0)
GPGPU-Sim uArch: cycles simulated: 6000  inst.: 1718432 (ipc=286.4) sim_rate=85921 (inst/sec) elapsed = 0:0:00:20 / Tue May 12 20:33:49 2015
GPGPU-Sim PTX: 1800000 instructions simulated : ctaid=(36,0,0) tid=(63,0,0)
GPGPU-Sim PTX: 1900000 instructions simulated : ctaid=(37,0,0) tid=(95,0,0)
GPGPU-Sim uArch: cycles simulated: 6500  inst.: 1885792 (ipc=290.1) sim_rate=85717 (inst/sec) elapsed = 0:0:00:22 / Tue May 12 20:33:51 2015
GPGPU-Sim PTX: 2000000 instructions simulated : ctaid=(44,0,0) tid=(31,0,0)
GPGPU-Sim uArch: cycles simulated: 7000  inst.: 1998720 (ipc=285.5) sim_rate=86900 (inst/sec) elapsed = 0:0:00:23 / Tue May 12 20:33:52 2015
GPGPU-Sim PTX: 2100000 instructions simulated : ctaid=(36,0,0) tid=(63,0,0)
GPGPU-Sim uArch: cycles simulated: 7500  inst.: 2132480 (ipc=284.3) sim_rate=88853 (inst/sec) elapsed = 0:0:00:24 / Tue May 12 20:33:53 2015
GPGPU-Sim PTX: 2200000 instructions simulated : ctaid=(27,0,0) tid=(127,0,0)
GPGPU-Sim uArch: cycles simulated: 8000  inst.: 2274272 (ipc=284.3) sim_rate=87472 (inst/sec) elapsed = 0:0:00:26 / Tue May 12 20:33:55 2015
GPGPU-Sim PTX: 2300000 instructions simulated : ctaid=(3,0,0) tid=(31,0,0)
GPGPU-Sim PTX: 2400000 instructions simulated : ctaid=(9,0,0) tid=(95,0,0)
GPGPU-Sim uArch: cycles simulated: 8500  inst.: 2384128 (ipc=280.5) sim_rate=88301 (inst/sec) elapsed = 0:0:00:27 / Tue May 12 20:33:56 2015
GPGPU-Sim PTX: 2500000 instructions simulated : ctaid=(26,0,0) tid=(31,0,0)
GPGPU-Sim uArch: cycles simulated: 9000  inst.: 2544416 (ipc=282.7) sim_rate=90872 (inst/sec) elapsed = 0:0:00:28 / Tue May 12 20:33:57 2015
GPGPU-Sim PTX: 2600000 instructions simulated : ctaid=(23,0,0) tid=(127,0,0)
GPGPU-Sim uArch: cycles simulated: 9500  inst.: 2652320 (ipc=279.2) sim_rate=91459 (inst/sec) elapsed = 0:0:00:29 / Tue May 12 20:33:58 2015
GPGPU-Sim PTX: 2700000 instructions simulated : ctaid=(28,0,0) tid=(63,0,0)
GPGPU-Sim PTX: 2800000 instructions simulated : ctaid=(18,0,0) tid=(63,0,0)
GPGPU-Sim uArch: cycles simulated: 10000  inst.: 2810784 (ipc=281.1) sim_rate=90670 (inst/sec) elapsed = 0:0:00:31 / Tue May 12 20:34:00 2015
GPGPU-Sim PTX: 2900000 instructions simulated : ctaid=(9,0,0) tid=(31,0,0)
GPGPU-Sim uArch: cycles simulated: 10500  inst.: 2920448 (ipc=278.1) sim_rate=91264 (inst/sec) elapsed = 0:0:00:32 / Tue May 12 20:34:01 2015
GPGPU-Sim PTX: 3000000 instructions simulated : ctaid=(20,0,0) tid=(63,0,0)
GPGPU-Sim uArch: cycles simulated: 11000  inst.: 3066208 (ipc=278.7) sim_rate=92915 (inst/sec) elapsed = 0:0:00:33 / Tue May 12 20:34:02 2015
GPGPU-Sim PTX: 3100000 instructions simulated : ctaid=(44,0,0) tid=(31,0,0)
GPGPU-Sim PTX: 3200000 instructions simulated : ctaid=(43,0,0) tid=(63,0,0)
GPGPU-Sim uArch: cycles simulated: 11500  inst.: 3196512 (ipc=278.0) sim_rate=94015 (inst/sec) elapsed = 0:0:00:34 / Tue May 12 20:34:03 2015
GPGPU-Sim PTX: 3300000 instructions simulated : ctaid=(35,0,0) tid=(95,0,0)
GPGPU-Sim uArch: cycles simulated: 12000  inst.: 3318336 (ipc=276.5) sim_rate=92176 (inst/sec) elapsed = 0:0:00:36 / Tue May 12 20:34:05 2015
GPGPU-Sim PTX: 3400000 instructions simulated : ctaid=(44,0,0) tid=(127,0,0)
GPGPU-Sim uArch: cycles simulated: 12500  inst.: 3469024 (ipc=277.5) sim_rate=93757 (inst/sec) elapsed = 0:0:00:37 / Tue May 12 20:34:06 2015
GPGPU-Sim PTX: 3500000 instructions simulated : ctaid=(29,0,0) tid=(127,0,0)
GPGPU-Sim uArch: cycles simulated: 13000  inst.: 3573600 (ipc=274.9) sim_rate=94042 (inst/sec) elapsed = 0:0:00:38 / Tue May 12 20:34:07 2015
GPGPU-Sim PTX: 3600000 instructions simulated : ctaid=(21,0,0) tid=(31,0,0)
GPGPU-Sim PTX: 3700000 instructions simulated : ctaid=(31,0,0) tid=(31,0,0)
GPGPU-Sim uArch: cycles simulated: 13500  inst.: 3732448 (ipc=276.5) sim_rate=93311 (inst/sec) elapsed = 0:0:00:40 / Tue May 12 20:34:09 2015
GPGPU-Sim PTX: 3800000 instructions simulated : ctaid=(8,0,0) tid=(31,0,0)
GPGPU-Sim uArch: cycles simulated: 14000  inst.: 3842048 (ipc=274.4) sim_rate=93708 (inst/sec) elapsed = 0:0:00:41 / Tue May 12 20:34:10 2015
GPGPU-Sim PTX: 3900000 instructions simulated : ctaid=(43,0,0) tid=(63,0,0)
GPGPU-Sim PTX: 4000000 instructions simulated : ctaid=(3,0,0) tid=(63,0,0)
GPGPU-Sim uArch: cycles simulated: 14500  inst.: 3987264 (ipc=275.0) sim_rate=94934 (inst/sec) elapsed = 0:0:00:42 / Tue May 12 20:34:11 2015
GPGPU-Sim PTX: 4100000 instructions simulated : ctaid=(10,0,0) tid=(95,0,0)
GPGPU-Sim uArch: cycles simulated: 15000  inst.: 4118176 (ipc=274.5) sim_rate=95771 (inst/sec) elapsed = 0:0:00:43 / Tue May 12 20:34:12 2015
GPGPU-Sim PTX: 4200000 instructions simulated : ctaid=(30,0,0) tid=(31,0,0)
GPGPU-Sim uArch: cycles simulated: 15500  inst.: 4234848 (ipc=273.2) sim_rate=96246 (inst/sec) elapsed = 0:0:00:44 / Tue May 12 20:34:13 2015
GPGPU-Sim PTX: 4300000 instructions simulated : ctaid=(37,0,0) tid=(63,0,0)
GPGPU-Sim PTX: 4400000 instructions simulated : ctaid=(39,0,0) tid=(63,0,0)
GPGPU-Sim uArch: cycles simulated: 16000  inst.: 4391392 (ipc=274.5) sim_rate=95465 (inst/sec) elapsed = 0:0:00:46 / Tue May 12 20:34:15 2015
GPGPU-Sim PTX: 4500000 instructions simulated : ctaid=(39,0,0) tid=(63,0,0)
GPGPU-Sim uArch: cycles simulated: 16500  inst.: 4498240 (ipc=272.6) sim_rate=95707 (inst/sec) elapsed = 0:0:00:47 / Tue May 12 20:34:16 2015
GPGPU-Sim PTX: 4600000 instructions simulated : ctaid=(43,0,0) tid=(63,0,0)
GPGPU-Sim uArch: cycles simulated: 17000  inst.: 4656480 (ipc=273.9) sim_rate=97010 (inst/sec) elapsed = 0:0:00:48 / Tue May 12 20:34:17 2015
GPGPU-Sim PTX: 4700000 instructions simulated : ctaid=(6,0,0) tid=(31,0,0)
GPGPU-Sim uArch: cycles simulated: 17500  inst.: 4764576 (ipc=272.3) sim_rate=97236 (inst/sec) elapsed = 0:0:00:49 / Tue May 12 20:34:18 2015
GPGPU-Sim PTX: 4800000 instructions simulated : ctaid=(11,0,0) tid=(63,0,0)
GPGPU-Sim PTX: 4900000 instructions simulated : ctaid=(3,0,0) tid=(95,0,0)
GPGPU-Sim uArch: cycles simulated: 18000  inst.: 4918304 (ipc=273.2) sim_rate=96437 (inst/sec) elapsed = 0:0:00:51 / Tue May 12 20:34:20 2015
GPGPU-Sim PTX: 5000000 instructions simulated : ctaid=(8,0,0) tid=(31,0,0)
GPGPU-Sim uArch: cycles simulated: 18500  inst.: 5040000 (ipc=272.4) sim_rate=96923 (inst/sec) elapsed = 0:0:00:52 / Tue May 12 20:34:21 2015
GPGPU-Sim PTX: 5100000 instructions simulated : ctaid=(13,0,0) tid=(95,0,0)
GPGPU-Sim PTX: 5200000 instructions simulated : ctaid=(33,0,0) tid=(95,0,0)
GPGPU-Sim uArch: cycles simulated: 19000  inst.: 5175136 (ipc=272.4) sim_rate=97644 (inst/sec) elapsed = 0:0:00:53 / Tue May 12 20:34:22 2015
GPGPU-Sim PTX: 5300000 instructions simulated : ctaid=(23,0,0) tid=(63,0,0)
GPGPU-Sim uArch: cycles simulated: 19500  inst.: 5315584 (ipc=272.6) sim_rate=98436 (inst/sec) elapsed = 0:0:00:54 / Tue May 12 20:34:23 2015
GPGPU-Sim PTX: 5400000 instructions simulated : ctaid=(13,0,0) tid=(63,0,0)
GPGPU-Sim uArch: cycles simulated: 20000  inst.: 5423904 (ipc=271.2) sim_rate=98616 (inst/sec) elapsed = 0:0:00:55 / Tue May 12 20:34:24 2015
GPGPU-Sim PTX: 5500000 instructions simulated : ctaid=(30,0,0) tid=(95,0,0)
GPGPU-Sim PTX: 5600000 instructions simulated : ctaid=(39,0,0) tid=(31,0,0)
GPGPU-Sim uArch: cycles simulated: 20500  inst.: 5583488 (ipc=272.4) sim_rate=97955 (inst/sec) elapsed = 0:0:00:57 / Tue May 12 20:34:26 2015
GPGPU-Sim PTX: 5700000 instructions simulated : ctaid=(28,0,0) tid=(95,0,0)
GPGPU-Sim uArch: cycles simulated: 21000  inst.: 5686656 (ipc=270.8) sim_rate=96384 (inst/sec) elapsed = 0:0:00:59 / Tue May 12 20:34:28 2015
GPGPU-Sim PTX: 5800000 instructions simulated : ctaid=(43,0,0) tid=(127,0,0)
GPGPU-Sim uArch: cycles simulated: 21500  inst.: 5844864 (ipc=271.9) sim_rate=97414 (inst/sec) elapsed = 0:0:01:00 / Tue May 12 20:34:29 2015
GPGPU-Sim PTX: 5900000 instructions simulated : ctaid=(29,0,0) tid=(63,0,0)
GPGPU-Sim uArch: cycles simulated: 22000  inst.: 5961600 (ipc=271.0) sim_rate=97731 (inst/sec) elapsed = 0:0:01:01 / Tue May 12 20:34:30 2015
GPGPU-Sim PTX: 6000000 instructions simulated : ctaid=(26,0,0) tid=(95,0,0)
GPGPU-Sim PTX: 6100000 instructions simulated : ctaid=(18,0,0) tid=(63,0,0)
GPGPU-Sim uArch: cycles simulated: 22500  inst.: 6104704 (ipc=271.3) sim_rate=98462 (inst/sec) elapsed = 0:0:01:02 / Tue May 12 20:34:31 2015
GPGPU-Sim PTX: 6200000 instructions simulated : ctaid=(8,0,0) tid=(31,0,0)
GPGPU-Sim uArch: cycles simulated: 23000  inst.: 6237952 (ipc=271.2) sim_rate=97468 (inst/sec) elapsed = 0:0:01:04 / Tue May 12 20:34:33 2015
GPGPU-Sim PTX: 6300000 instructions simulated : ctaid=(28,0,0) tid=(31,0,0)
GPGPU-Sim uArch: cycles simulated: 23500  inst.: 6360224 (ipc=270.6) sim_rate=97849 (inst/sec) elapsed = 0:0:01:05 / Tue May 12 20:34:34 2015
GPGPU-Sim PTX: 6400000 instructions simulated : ctaid=(22,0,0) tid=(127,0,0)
GPGPU-Sim PTX: 6500000 instructions simulated : ctaid=(15,0,0) tid=(95,0,0)
GPGPU-Sim uArch: cycles simulated: 24000  inst.: 6512416 (ipc=271.4) sim_rate=98672 (inst/sec) elapsed = 0:0:01:06 / Tue May 12 20:34:35 2015
GPGPU-Sim PTX: 6600000 instructions simulated : ctaid=(19,0,0) tid=(127,0,0)
GPGPU-Sim uArch: cycles simulated: 24500  inst.: 6618656 (ipc=270.1) sim_rate=98785 (inst/sec) elapsed = 0:0:01:07 / Tue May 12 20:34:36 2015
GPGPU-Sim PTX: 6700000 instructions simulated : ctaid=(38,0,0) tid=(95,0,0)
GPGPU-Sim PTX: 6800000 instructions simulated : ctaid=(40,0,0) tid=(95,0,0)
GPGPU-Sim uArch: cycles simulated: 25000  inst.: 6779936 (ipc=271.2) sim_rate=98259 (inst/sec) elapsed = 0:0:01:09 / Tue May 12 20:34:38 2015
GPGPU-Sim PTX: 6900000 instructions simulated : ctaid=(41,0,0) tid=(31,0,0)
GPGPU-Sim uArch: cycles simulated: 25500  inst.: 6890112 (ipc=270.2) sim_rate=98430 (inst/sec) elapsed = 0:0:01:10 / Tue May 12 20:34:39 2015
GPGPU-Sim PTX: 7000000 instructions simulated : ctaid=(0,0,0) tid=(63,0,0)
GPGPU-Sim uArch: cycles simulated: 26000  inst.: 7048736 (ipc=271.1) sim_rate=99277 (inst/sec) elapsed = 0:0:01:11 / Tue May 12 20:34:40 2015
GPGPU-Sim PTX: 7100000 instructions simulated : ctaid=(18,0,0) tid=(63,0,0)
GPGPU-Sim uArch: cycles simulated: 26500  inst.: 7159840 (ipc=270.2) sim_rate=99442 (inst/sec) elapsed = 0:0:01:12 / Tue May 12 20:34:41 2015
GPGPU-Sim PTX: 7200000 instructions simulated : ctaid=(5,0,0) tid=(95,0,0)
GPGPU-Sim PTX: 7300000 instructions simulated : ctaid=(3,0,0) tid=(31,0,0)
GPGPU-Sim uArch: cycles simulated: 27000  inst.: 7311584 (ipc=270.8) sim_rate=98805 (inst/sec) elapsed = 0:0:01:14 / Tue May 12 20:34:43 2015
GPGPU-Sim PTX: 7400000 instructions simulated : ctaid=(23,0,0) tid=(63,0,0)
GPGPU-Sim uArch: cycles simulated: 27500  inst.: 7436128 (ipc=270.4) sim_rate=99148 (inst/sec) elapsed = 0:0:01:15 / Tue May 12 20:34:44 2015
GPGPU-Sim PTX: 7500000 instructions simulated : ctaid=(28,0,0) tid=(63,0,0)
GPGPU-Sim uArch: cycles simulated: 28000  inst.: 7565888 (ipc=270.2) sim_rate=99551 (inst/sec) elapsed = 0:0:01:16 / Tue May 12 20:34:45 2015
GPGPU-Sim PTX: 7600000 instructions simulated : ctaid=(34,0,0) tid=(63,0,0)
GPGPU-Sim PTX: 7700000 instructions simulated : ctaid=(30,0,0) tid=(63,0,0)
GPGPU-Sim uArch: cycles simulated: 28500  inst.: 7710560 (ipc=270.5) sim_rate=98853 (inst/sec) elapsed = 0:0:01:18 / Tue May 12 20:34:47 2015
GPGPU-Sim PTX: 7800000 instructions simulated : ctaid=(23,0,0) tid=(63,0,0)
GPGPU-Sim uArch: cycles simulated: 29000  inst.: 7814656 (ipc=269.5) sim_rate=98919 (inst/sec) elapsed = 0:0:01:19 / Tue May 12 20:34:48 2015
GPGPU-Sim PTX: 7900000 instructions simulated : ctaid=(22,0,0) tid=(127,0,0)
GPGPU-Sim PTX: 8000000 instructions simulated : ctaid=(37,0,0) tid=(127,0,0)
GPGPU-Sim uArch: cycles simulated: 29500  inst.: 7976896 (ipc=270.4) sim_rate=99711 (inst/sec) elapsed = 0:0:01:20 / Tue May 12 20:34:49 2015
GPGPU-Sim PTX: 8100000 instructions simulated : ctaid=(40,0,0) tid=(63,0,0)
GPGPU-Sim uArch: cycles simulated: 30000  inst.: 8082848 (ipc=269.4) sim_rate=99788 (inst/sec) elapsed = 0:0:01:21 / Tue May 12 20:34:50 2015
GPGPU-Sim PTX: 8200000 instructions simulated : ctaid=(0,0,0) tid=(31,0,0)
GPGPU-Sim uArch: cycles simulated: 30500  inst.: 8236800 (ipc=270.1) sim_rate=100448 (inst/sec) elapsed = 0:0:01:22 / Tue May 12 20:34:51 2015
GPGPU-Sim PTX: 8300000 instructions simulated : ctaid=(16,0,0) tid=(31,0,0)
GPGPU-Sim uArch: cycles simulated: 31000  inst.: 8357760 (ipc=269.6) sim_rate=99497 (inst/sec) elapsed = 0:0:01:24 / Tue May 12 20:34:53 2015
GPGPU-Sim PTX: 8400000 instructions simulated : ctaid=(26,0,0) tid=(31,0,0)
GPGPU-Sim PTX: 8500000 instructions simulated : ctaid=(18,0,0) tid=(95,0,0)
GPGPU-Sim uArch: cycles simulated: 31500  inst.: 8487648 (ipc=269.4) sim_rate=99854 (inst/sec) elapsed = 0:0:01:25 / Tue May 12 20:34:54 2015
GPGPU-Sim PTX: 8600000 instructions simulated : ctaid=(8,0,0) tid=(31,0,0)
GPGPU-Sim uArch: cycles simulated: 32000  inst.: 8632768 (ipc=269.8) sim_rate=100381 (inst/sec) elapsed = 0:0:01:26 / Tue May 12 20:34:55 2015
GPGPU-Sim PTX: 8700000 instructions simulated : ctaid=(13,0,0) tid=(95,0,0)
GPGPU-Sim uArch: cycles simulated: 32500  inst.: 8744096 (ipc=269.0) sim_rate=100506 (inst/sec) elapsed = 0:0:01:27 / Tue May 12 20:34:56 2015
GPGPU-Sim PTX: 8800000 instructions simulated : ctaid=(12,0,0) tid=(31,0,0)
GPGPU-Sim PTX: 8900000 instructions simulated : ctaid=(10,0,0) tid=(95,0,0)
GPGPU-Sim uArch: cycles simulated: 33000  inst.: 8900768 (ipc=269.7) sim_rate=100008 (inst/sec) elapsed = 0:0:01:29 / Tue May 12 20:34:58 2015
GPGPU-Sim PTX: 9000000 instructions simulated : ctaid=(33,0,0) tid=(31,0,0)
GPGPU-Sim uArch: cycles simulated: 33500  inst.: 9005376 (ipc=268.8) sim_rate=100059 (inst/sec) elapsed = 0:0:01:30 / Tue May 12 20:34:59 2015
GPGPU-Sim PTX: 9100000 instructions simulated : ctaid=(23,0,0) tid=(127,0,0)
GPGPU-Sim uArch: cycles simulated: 34000  inst.: 9160096 (ipc=269.4) sim_rate=100660 (inst/sec) elapsed = 0:0:01:31 / Tue May 12 20:35:00 2015
GPGPU-Sim PTX: 9200000 instructions simulated : ctaid=(38,0,0) tid=(63,0,0)
GPGPU-Sim PTX: 9300000 instructions simulated : ctaid=(35,0,0) tid=(127,0,0)
GPGPU-Sim uArch: cycles simulated: 34500  inst.: 9279360 (ipc=269.0) sim_rate=100862 (inst/sec) elapsed = 0:0:01:32 / Tue May 12 20:35:01 2015
GPGPU-Sim PTX: 9400000 instructions simulated : ctaid=(0,0,0) tid=(63,0,0)
GPGPU-Sim uArch: cycles simulated: 35000  inst.: 9412704 (ipc=268.9) sim_rate=100135 (inst/sec) elapsed = 0:0:01:34 / Tue May 12 20:35:03 2015
GPGPU-Sim PTX: 9500000 instructions simulated : ctaid=(5,0,0) tid=(127,0,0)
GPGPU-Sim uArch: cycles simulated: 35500  inst.: 9555168 (ipc=269.2) sim_rate=100580 (inst/sec) elapsed = 0:0:01:35 / Tue May 12 20:35:04 2015
GPGPU-Sim PTX: 9600000 instructions simulated : ctaid=(28,0,0) tid=(127,0,0)
GPGPU-Sim uArch: cycles simulated: 36000  inst.: 9667616 (ipc=268.5) sim_rate=100704 (inst/sec) elapsed = 0:0:01:36 / Tue May 12 20:35:05 2015
GPGPU-Sim PTX: 9700000 instructions simulated : ctaid=(18,0,0) tid=(31,0,0)
GPGPU-Sim PTX: 9800000 instructions simulated : ctaid=(8,0,0) tid=(127,0,0)
GPGPU-Sim uArch: cycles simulated: 36500  inst.: 9822592 (ipc=269.1) sim_rate=101263 (inst/sec) elapsed = 0:0:01:37 / Tue May 12 20:35:06 2015
GPGPU-Sim PTX: 9900000 instructions simulated : ctaid=(13,0,0) tid=(127,0,0)
GPGPU-Sim uArch: cycles simulated: 37000  inst.: 9927104 (ipc=268.3) sim_rate=101296 (inst/sec) elapsed = 0:0:01:38 / Tue May 12 20:35:07 2015
GPGPU-Sim PTX: 10000000 instructions simulated : ctaid=(18,0,0) tid=(63,0,0)
GPGPU-Sim PTX: 10100000 instructions simulated : ctaid=(23,0,0) tid=(95,0,0)
GPGPU-Sim uArch: cycles simulated: 37500  inst.: 10077824 (ipc=268.7) sim_rate=100778 (inst/sec) elapsed = 0:0:01:40 / Tue May 12 20:35:09 2015
GPGPU-Sim PTX: 10200000 instructions simulated : ctaid=(37,0,0) tid=(127,0,0)
GPGPU-Sim uArch: cycles simulated: 38000  inst.: 10200960 (ipc=268.4) sim_rate=100999 (inst/sec) elapsed = 0:0:01:41 / Tue May 12 20:35:10 2015
GPGPU-Sim PTX: 10300000 instructions simulated : ctaid=(33,0,0) tid=(95,0,0)
GPGPU-Sim uArch: cycles simulated: 38500  inst.: 10327808 (ipc=268.3) sim_rate=101253 (inst/sec) elapsed = 0:0:01:42 / Tue May 12 20:35:11 2015
GPGPU-Sim PTX: 10400000 instructions simulated : ctaid=(39,0,0) tid=(127,0,0)
GPGPU-Sim uArch: cycles simulated: 39000  inst.: 10474016 (ipc=268.6) sim_rate=101689 (inst/sec) elapsed = 0:0:01:43 / Tue May 12 20:35:12 2015
GPGPU-Sim PTX: 10500000 instructions simulated : ctaid=(43,0,0) tid=(127,0,0)
GPGPU-Sim PTX: 10600000 instructions simulated : ctaid=(18,0,0) tid=(31,0,0)
GPGPU-Sim uArch: cycles simulated: 39500  inst.: 10575456 (ipc=267.7) sim_rate=101687 (inst/sec) elapsed = 0:0:01:44 / Tue May 12 20:35:13 2015
GPGPU-Sim PTX: 10700000 instructions simulated : ctaid=(35,0,0) tid=(63,0,0)
GPGPU-Sim uArch: cycles simulated: 40000  inst.: 10733632 (ipc=268.3) sim_rate=101260 (inst/sec) elapsed = 0:0:01:46 / Tue May 12 20:35:15 2015
GPGPU-Sim PTX: 10800000 instructions simulated : ctaid=(43,0,0) tid=(31,0,0)
GPGPU-Sim uArch: cycles simulated: 40500  inst.: 10846080 (ipc=267.8) sim_rate=101365 (inst/sec) elapsed = 0:0:01:47 / Tue May 12 20:35:16 2015
GPGPU-Sim PTX: 10900000 instructions simulated : ctaid=(3,0,0) tid=(63,0,0)
GPGPU-Sim PTX: 11000000 instructions simulated : ctaid=(8,0,0) tid=(95,0,0)
GPGPU-Sim uArch: cycles simulated: 41000  inst.: 10983552 (ipc=267.9) sim_rate=100766 (inst/sec) elapsed = 0:0:01:49 / Tue May 12 20:35:18 2015
GPGPU-Sim PTX: 11100000 instructions simulated : ctaid=(44,0,0) tid=(127,0,0)
GPGPU-Sim uArch: cycles simulated: 41500  inst.: 11121088 (ipc=268.0) sim_rate=100189 (inst/sec) elapsed = 0:0:01:51 / Tue May 12 20:35:20 2015
GPGPU-Sim PTX: 11200000 instructions simulated : ctaid=(5,0,0) tid=(31,0,0)
GPGPU-Sim uArch: cycles simulated: 42000  inst.: 11224352 (ipc=267.2) sim_rate=98459 (inst/sec) elapsed = 0:0:01:54 / Tue May 12 20:35:23 2015
GPGPU-Sim PTX: 11300000 instructions simulated : ctaid=(44,0,0) tid=(127,0,0)
GPGPU-Sim PTX: 11400000 instructions simulated : ctaid=(10,0,0) tid=(127,0,0)
GPGPU-Sim uArch: cycles simulated: 42500  inst.: 11384992 (ipc=267.9) sim_rate=98999 (inst/sec) elapsed = 0:0:01:55 / Tue May 12 20:35:24 2015
GPGPU-Sim PTX: 11500000 instructions simulated : ctaid=(37,0,0) tid=(127,0,0)
GPGPU-Sim uArch: cycles simulated: 43000  inst.: 11492096 (ipc=267.3) sim_rate=99069 (inst/sec) elapsed = 0:0:01:56 / Tue May 12 20:35:25 2015
GPGPU-Sim PTX: 11600000 instructions simulated : ctaid=(42,0,0) tid=(127,0,0)
GPGPU-Sim uArch: cycles simulated: 43500  inst.: 11638176 (ipc=267.5) sim_rate=99471 (inst/sec) elapsed = 0:0:01:57 / Tue May 12 20:35:26 2015
GPGPU-Sim PTX: 11700000 instructions simulated : ctaid=(0,0,0) tid=(95,0,0)
GPGPU-Sim uArch: cycles simulated: 44000  inst.: 11767584 (ipc=267.4) sim_rate=98887 (inst/sec) elapsed = 0:0:01:59 / Tue May 12 20:35:28 2015
GPGPU-Sim PTX: 11800000 instructions simulated : ctaid=(9,0,0) tid=(127,0,0)
GPGPU-Sim PTX: 11900000 instructions simulated : ctaid=(0,0,0) tid=(31,0,0)
GPGPU-Sim uArch: cycles simulated: 44500  inst.: 11882336 (ipc=267.0) sim_rate=99019 (inst/sec) elapsed = 0:0:02:00 / Tue May 12 20:35:29 2015
GPGPU-Sim PTX: 12000000 instructions simulated : ctaid=(28,0,0) tid=(127,0,0)
GPGPU-Sim uArch: cycles simulated: 45000  inst.: 12039712 (ipc=267.5) sim_rate=99501 (inst/sec) elapsed = 0:0:02:01 / Tue May 12 20:35:30 2015
GPGPU-Sim PTX: 12100000 instructions simulated : ctaid=(18,0,0) tid=(95,0,0)
GPGPU-Sim uArch: cycles simulated: 45500  inst.: 12142368 (ipc=266.9) sim_rate=99527 (inst/sec) elapsed = 0:0:02:02 / Tue May 12 20:35:31 2015
GPGPU-Sim PTX: 12200000 instructions simulated : ctaid=(8,0,0) tid=(31,0,0)
GPGPU-Sim PTX: 12300000 instructions simulated : ctaid=(44,0,0) tid=(31,0,0)
GPGPU-Sim uArch: cycles simulated: 46000  inst.: 12302656 (ipc=267.4) sim_rate=99214 (inst/sec) elapsed = 0:0:02:04 / Tue May 12 20:35:33 2015
GPGPU-Sim PTX: 12400000 instructions simulated : ctaid=(21,0,0) tid=(31,0,0)
GPGPU-Sim uArch: cycles simulated: 46500  inst.: 12412800 (ipc=266.9) sim_rate=99302 (inst/sec) elapsed = 0:0:02:05 / Tue May 12 20:35:34 2015
GPGPU-Sim PTX: 12500000 instructions simulated : ctaid=(32,0,0) tid=(95,0,0)
GPGPU-Sim uArch: cycles simulated: 47000  inst.: 12551296 (ipc=267.0) sim_rate=99613 (inst/sec) elapsed = 0:0:02:06 / Tue May 12 20:35:35 2015
GPGPU-Sim PTX: 12600000 instructions simulated : ctaid=(30,0,0) tid=(63,0,0)
GPGPU-Sim PTX: 12700000 instructions simulated : ctaid=(33,0,0) tid=(63,0,0)
GPGPU-Sim uArch: cycles simulated: 47500  inst.: 12688928 (ipc=267.1) sim_rate=99912 (inst/sec) elapsed = 0:0:02:07 / Tue May 12 20:35:36 2015
GPGPU-Sim PTX: 12800000 instructions simulated : ctaid=(43,0,0) tid=(31,0,0)
GPGPU-Sim uArch: cycles simulated: 48000  inst.: 12811008 (ipc=266.9) sim_rate=99310 (inst/sec) elapsed = 0:0:02:09 / Tue May 12 20:35:38 2015
GPGPU-Sim PTX: 12900000 instructions simulated : ctaid=(2,0,0) tid=(127,0,0)
GPGPU-Sim uArch: cycles simulated: 48500  inst.: 12960800 (ipc=267.2) sim_rate=99698 (inst/sec) elapsed = 0:0:02:10 / Tue May 12 20:35:39 2015
GPGPU-Sim PTX: 13000000 instructions simulated : ctaid=(7,0,0) tid=(31,0,0)
GPGPU-Sim uArch: cycles simulated: 49000  inst.: 13065024 (ipc=266.6) sim_rate=99733 (inst/sec) elapsed = 0:0:02:11 / Tue May 12 20:35:40 2015
GPGPU-Sim PTX: 13100000 instructions simulated : ctaid=(5,0,0) tid=(63,0,0)
GPGPU-Sim PTX: 13200000 instructions simulated : ctaid=(43,0,0) tid=(127,0,0)
GPGPU-Sim uArch: cycles simulated: 49500  inst.: 13227584 (ipc=267.2) sim_rate=99455 (inst/sec) elapsed = 0:0:02:13 / Tue May 12 20:35:42 2015
GPGPU-Sim PTX: 13300000 instructions simulated : ctaid=(19,0,0) tid=(95,0,0)
GPGPU-Sim uArch: cycles simulated: 50000  inst.: 13334752 (ipc=266.7) sim_rate=99513 (inst/sec) elapsed = 0:0:02:14 / Tue May 12 20:35:43 2015
GPGPU-Sim PTX: 13400000 instructions simulated : ctaid=(26,0,0) tid=(63,0,0)
GPGPU-Sim PTX: 13500000 instructions simulated : ctaid=(6,0,0) tid=(63,0,0)
GPGPU-Sim uArch: cycles simulated: 50500  inst.: 13487392 (ipc=267.1) sim_rate=99906 (inst/sec) elapsed = 0:0:02:15 / Tue May 12 20:35:44 2015
GPGPU-Sim PTX: 13600000 instructions simulated : ctaid=(23,0,0) tid=(127,0,0)
GPGPU-Sim uArch: cycles simulated: 51000  inst.: 13610880 (ipc=266.9) sim_rate=100080 (inst/sec) elapsed = 0:0:02:16 / Tue May 12 20:35:45 2015
GPGPU-Sim PTX: 13700000 instructions simulated : ctaid=(35,0,0) tid=(31,0,0)
GPGPU-Sim uArch: cycles simulated: 51500  inst.: 13737536 (ipc=266.7) sim_rate=99547 (inst/sec) elapsed = 0:0:02:18 / Tue May 12 20:35:47 2015
GPGPU-Sim PTX: 13800000 instructions simulated : ctaid=(31,0,0) tid=(95,0,0)
GPGPU-Sim PTX: 13900000 instructions simulated : ctaid=(44,0,0) tid=(95,0,0)
GPGPU-Sim uArch: cycles simulated: 52000  inst.: 13884864 (ipc=267.0) sim_rate=99891 (inst/sec) elapsed = 0:0:02:19 / Tue May 12 20:35:48 2015
GPGPU-Sim PTX: 14000000 instructions simulated : ctaid=(41,0,0) tid=(127,0,0)
GPGPU-Sim uArch: cycles simulated: 52500  inst.: 13987904 (ipc=266.4) sim_rate=99913 (inst/sec) elapsed = 0:0:02:20 / Tue May 12 20:35:49 2015
GPGPU-Sim PTX: 14100000 instructions simulated : ctaid=(32,0,0) tid=(95,0,0)
GPGPU-Sim uArch: cycles simulated: 53000  inst.: 14150720 (ipc=267.0) sim_rate=100359 (inst/sec) elapsed = 0:0:02:21 / Tue May 12 20:35:50 2015
GPGPU-Sim PTX: 14200000 instructions simulated : ctaid=(0,0,0) tid=(127,0,0)
GPGPU-Sim uArch: cycles simulated: 53500  inst.: 14256000 (ipc=266.5) sim_rate=99692 (inst/sec) elapsed = 0:0:02:23 / Tue May 12 20:35:52 2015
GPGPU-Sim PTX: 14300000 instructions simulated : ctaid=(8,0,0) tid=(127,0,0)
GPGPU-Sim PTX: 14400000 instructions simulated : ctaid=(28,0,0) tid=(63,0,0)
GPGPU-Sim uArch: cycles simulated: 54000  inst.: 14400096 (ipc=266.7) sim_rate=100000 (inst/sec) elapsed = 0:0:02:24 / Tue May 12 20:35:53 2015
GPGPU-Sim PTX: 14500000 instructions simulated : ctaid=(18,0,0) tid=(63,0,0)
GPGPU-Sim uArch: cycles simulated: 54500  inst.: 14532384 (ipc=266.6) sim_rate=100223 (inst/sec) elapsed = 0:0:02:25 / Tue May 12 20:35:54 2015
GPGPU-Sim PTX: 14600000 instructions simulated : ctaid=(23,0,0) tid=(31,0,0)
GPGPU-Sim uArch: cycles simulated: 55000  inst.: 14643968 (ipc=266.3) sim_rate=100301 (inst/sec) elapsed = 0:0:02:26 / Tue May 12 20:35:55 2015
GPGPU-Sim PTX: 14700000 instructions simulated : ctaid=(13,0,0) tid=(63,0,0)
GPGPU-Sim uArch: cycles simulated: 55500  inst.: 14715488 (ipc=265.1) sim_rate=99428 (inst/sec) elapsed = 0:0:02:28 / Tue May 12 20:35:57 2015
GPGPU-Sim uArch: Shader 8 finished CTA #0 (55687,0), 2 CTAs running
GPGPU-Sim uArch: core:  8, cta: 0 initialized @(55688,0)
GPGPU-Sim uArch: Shader 1 finished CTA #0 (55717,0), 2 CTAs running
GPGPU-Sim uArch: core:  1, cta: 0 initialized @(55718,0)
GPGPU-Sim uArch: Shader 2 finished CTA #0 (55742,0), 2 CTAs running
GPGPU-Sim uArch: core:  2, cta: 0 initialized @(55743,0)
GPGPU-Sim uArch: Shader 5 finished CTA #0 (55751,0), 2 CTAs running
GPGPU-Sim uArch: core:  5, cta: 0 initialized @(55752,0)
GPGPU-Sim uArch: Shader 14 finished CTA #0 (55839,0), 2 CTAs running
GPGPU-Sim uArch: core: 14, cta: 0 initialized @(55840,0)
GPGPU-Sim uArch: Shader 5 finished CTA #1 (55867,0), 2 CTAs running
GPGPU-Sim uArch: core:  5, cta: 1 initialized @(55868,0)
GPGPU-Sim uArch: Shader 6 finished CTA #0 (55881,0), 2 CTAs running
GPGPU-Sim uArch: core:  6, cta: 0 initialized @(55882,0)
GPGPU-Sim uArch: Shader 7 finished CTA #0 (55889,0), 2 CTAs running
GPGPU-Sim uArch: core:  7, cta: 0 initialized @(55890,0)
GPGPU-Sim uArch: Shader 3 finished CTA #0 (55899,0), 2 CTAs running
GPGPU-Sim uArch: Shader 12 finished CTA #0 (55899,0), 2 CTAs running
GPGPU-Sim uArch: core: 12, cta: 0 initialized @(55900,0)
GPGPU-Sim uArch: core:  3, cta: 0 initialized @(55900,0)
GPGPU-Sim uArch: Shader 13 finished CTA #0 (55920,0), 2 CTAs running
GPGPU-Sim uArch: core: 13, cta: 0 initialized @(55921,0)
GPGPU-Sim uArch: Shader 9 finished CTA #0 (55933,0), 2 CTAs running
GPGPU-Sim uArch: core:  9, cta: 0 initialized @(55934,0)
GPGPU-Sim uArch: Shader 0 finished CTA #0 (55936,0), 2 CTAs running
GPGPU-Sim uArch: core:  0, cta: 0 initialized @(55937,0)
GPGPU-Sim uArch: Shader 4 finished CTA #0 (55948,0), 2 CTAs running
GPGPU-Sim uArch: core:  4, cta: 0 initialized @(55949,0)
GPGPU-Sim uArch: Shader 10 finished CTA #0 (55954,0), 2 CTAs running
GPGPU-Sim uArch: core: 10, cta: 0 initialized @(55955,0)
GPGPU-Sim uArch: Shader 11 finished CTA #0 (55969,0), 2 CTAs running
GPGPU-Sim uArch: core: 11, cta: 0 initialized @(55970,0)
GPGPU-Sim uArch: Shader 1 finished CTA #1 (55979,0), 2 CTAs running
GPGPU-Sim uArch: core:  1, cta: 1 initialized @(55980,0)
GPGPU-Sim uArch: cycles simulated: 56000  inst.: 14732224 (ipc=263.1) sim_rate=98214 (inst/sec) elapsed = 0:0:02:30 / Tue May 12 20:35:59 2015
GPGPU-Sim uArch: Shader 3 finished CTA #1 (56032,0), 2 CTAs running
GPGPU-Sim uArch: core:  3, cta: 1 initialized @(56033,0)
GPGPU-Sim uArch: Shader 6 finished CTA #1 (56079,0), 2 CTAs running
GPGPU-Sim uArch: core:  6, cta: 1 initialized @(56080,0)
GPGPU-Sim uArch: Shader 12 finished CTA #1 (56107,0), 2 CTAs running
GPGPU-Sim uArch: core: 12, cta: 1 initialized @(56108,0)
GPGPU-Sim uArch: Shader 11 finished CTA #1 (56130,0), 2 CTAs running
GPGPU-Sim uArch: core: 11, cta: 1 initialized @(56131,0)
GPGPU-Sim uArch: Shader 7 finished CTA #1 (56148,0), 2 CTAs running
GPGPU-Sim uArch: core:  7, cta: 1 initialized @(56149,0)
GPGPU-Sim uArch: Shader 13 finished CTA #1 (56160,0), 2 CTAs running
GPGPU-Sim uArch: core: 13, cta: 1 initialized @(56161,0)
GPGPU-Sim uArch: Shader 9 finished CTA #1 (56176,0), 2 CTAs running
GPGPU-Sim uArch: core:  9, cta: 1 initialized @(56177,0)
GPGPU-Sim uArch: Shader 3 finished CTA #2 (56178,0), 2 CTAs running
GPGPU-Sim uArch: core:  3, cta: 2 initialized @(56179,0)
GPGPU-Sim uArch: Shader 0 finished CTA #1 (56179,0), 2 CTAs running
GPGPU-Sim uArch: core:  0, cta: 1 initialized @(56180,0)
GPGPU-Sim uArch: Shader 4 finished CTA #1 (56184,0), 2 CTAs running
GPGPU-Sim uArch: core:  4, cta: 1 initialized @(56185,0)
GPGPU-Sim uArch: Shader 14 finished CTA #1 (56213,0), 2 CTAs running
GPGPU-Sim uArch: core: 14, cta: 1 initialized @(56214,0)
GPGPU-Sim uArch: Shader 2 finished CTA #1 (56216,0), 2 CTAs running
GPGPU-Sim uArch: core:  2, cta: 1 initialized @(56217,0)
GPGPU-Sim uArch: Shader 8 finished CTA #1 (56222,0), 2 CTAs running
GPGPU-Sim uArch: core:  8, cta: 1 initialized @(56223,0)
GPGPU-Sim uArch: Shader 10 finished CTA #1 (56234,0), 2 CTAs running
GPGPU-Sim uArch: core: 10, cta: 1 initialized @(56235,0)
GPGPU-Sim uArch: Shader 5 finished CTA #2 (56244,0), 2 CTAs running
GPGPU-Sim uArch: core:  5, cta: 2 initialized @(56245,0)
GPGPU-Sim PTX: 14800000 instructions simulated : ctaid=(56,0,0) tid=(31,0,0)
GPGPU-Sim uArch: Shader 11 finished CTA #2 (56261,0), 2 CTAs running
GPGPU-Sim uArch: core: 11, cta: 2 initialized @(56262,0)
GPGPU-Sim uArch: Shader 1 finished CTA #2 (56262,0), 2 CTAs running
GPGPU-Sim uArch: core:  1, cta: 2 initialized @(56263,0)
GPGPU-Sim uArch: Shader 6 finished CTA #2 (56295,0), 2 CTAs running
GPGPU-Sim uArch: core:  6, cta: 2 initialized @(56296,0)
GPGPU-Sim uArch: Shader 12 finished CTA #2 (56330,0), 2 CTAs running
GPGPU-Sim uArch: core: 12, cta: 2 initialized @(56331,0)
GPGPU-Sim uArch: Shader 4 finished CTA #2 (56369,0), 2 CTAs running
GPGPU-Sim uArch: core:  4, cta: 2 initialized @(56370,0)
GPGPU-Sim uArch: Shader 7 finished CTA #2 (56413,0), 2 CTAs running
GPGPU-Sim uArch: core:  7, cta: 2 initialized @(56414,0)
GPGPU-Sim uArch: Shader 13 finished CTA #2 (56424,0), 2 CTAs running
GPGPU-Sim uArch: core: 13, cta: 2 initialized @(56425,0)
GPGPU-Sim uArch: Shader 10 finished CTA #2 (56432,0), 2 CTAs running
GPGPU-Sim uArch: core: 10, cta: 2 initialized @(56433,0)
GPGPU-Sim uArch: Shader 9 finished CTA #2 (56461,0), 2 CTAs running
GPGPU-Sim uArch: core:  9, cta: 2 initialized @(56462,0)
GPGPU-Sim uArch: Shader 0 finished CTA #2 (56468,0), 2 CTAs running
GPGPU-Sim uArch: core:  0, cta: 2 initialized @(56469,0)
GPGPU-Sim uArch: cycles simulated: 56500  inst.: 14831648 (ipc=262.5) sim_rate=96938 (inst/sec) elapsed = 0:0:02:33 / Tue May 12 20:36:02 2015
GPGPU-Sim PTX: 14900000 instructions simulated : ctaid=(73,0,0) tid=(95,0,0)
GPGPU-Sim uArch: Shader 14 finished CTA #2 (56637,0), 2 CTAs running
GPGPU-Sim uArch: core: 14, cta: 2 initialized @(56638,0)
GPGPU-Sim uArch: Shader 2 finished CTA #2 (56640,0), 2 CTAs running
GPGPU-Sim uArch: core:  2, cta: 2 initialized @(56641,0)
GPGPU-Sim uArch: Shader 8 finished CTA #2 (56646,0), 2 CTAs running
GPGPU-Sim uArch: core:  8, cta: 2 initialized @(56647,0)
GPGPU-Sim PTX: 15000000 instructions simulated : ctaid=(69,0,0) tid=(31,0,0)
GPGPU-Sim uArch: cycles simulated: 57000  inst.: 15041984 (ipc=263.9) sim_rate=97045 (inst/sec) elapsed = 0:0:02:35 / Tue May 12 20:36:04 2015
GPGPU-Sim PTX: 15100000 instructions simulated : ctaid=(62,0,0) tid=(127,0,0)
GPGPU-Sim PTX: 15200000 instructions simulated : ctaid=(80,0,0) tid=(31,0,0)
GPGPU-Sim uArch: cycles simulated: 57500  inst.: 15221088 (ipc=264.7) sim_rate=97571 (inst/sec) elapsed = 0:0:02:36 / Tue May 12 20:36:05 2015
GPGPU-Sim PTX: 15300000 instructions simulated : ctaid=(76,0,0) tid=(31,0,0)
GPGPU-Sim PTX: 15400000 instructions simulated : ctaid=(61,0,0) tid=(31,0,0)
GPGPU-Sim uArch: cycles simulated: 58000  inst.: 15352896 (ipc=264.7) sim_rate=97170 (inst/sec) elapsed = 0:0:02:38 / Tue May 12 20:36:07 2015
GPGPU-Sim PTX: 15500000 instructions simulated : ctaid=(70,0,0) tid=(63,0,0)
GPGPU-Sim PTX: 15600000 instructions simulated : ctaid=(51,0,0) tid=(31,0,0)
GPGPU-Sim uArch: cycles simulated: 58500  inst.: 15580672 (ipc=266.3) sim_rate=97991 (inst/sec) elapsed = 0:0:02:39 / Tue May 12 20:36:08 2015
GPGPU-Sim PTX: 15700000 instructions simulated : ctaid=(65,0,0) tid=(31,0,0)
GPGPU-Sim PTX: 15800000 instructions simulated : ctaid=(47,0,0) tid=(127,0,0)
GPGPU-Sim uArch: cycles simulated: 59000  inst.: 15818720 (ipc=268.1) sim_rate=98252 (inst/sec) elapsed = 0:0:02:41 / Tue May 12 20:36:10 2015
GPGPU-Sim PTX: 15900000 instructions simulated : ctaid=(79,0,0) tid=(31,0,0)
GPGPU-Sim PTX: 16000000 instructions simulated : ctaid=(68,0,0) tid=(63,0,0)
GPGPU-Sim uArch: cycles simulated: 59500  inst.: 16040864 (ipc=269.6) sim_rate=98410 (inst/sec) elapsed = 0:0:02:43 / Tue May 12 20:36:12 2015
GPGPU-Sim PTX: 16100000 instructions simulated : ctaid=(47,0,0) tid=(127,0,0)
GPGPU-Sim PTX: 16200000 instructions simulated : ctaid=(45,0,0) tid=(127,0,0)
GPGPU-Sim PTX: 16300000 instructions simulated : ctaid=(58,0,0) tid=(95,0,0)
GPGPU-Sim uArch: cycles simulated: 60000  inst.: 16258688 (ipc=271.0) sim_rate=98537 (inst/sec) elapsed = 0:0:02:45 / Tue May 12 20:36:14 2015
GPGPU-Sim PTX: 16400000 instructions simulated : ctaid=(61,0,0) tid=(95,0,0)
GPGPU-Sim PTX: 16500000 instructions simulated : ctaid=(83,0,0) tid=(31,0,0)
GPGPU-Sim uArch: cycles simulated: 60500  inst.: 16475616 (ipc=272.3) sim_rate=98656 (inst/sec) elapsed = 0:0:02:47 / Tue May 12 20:36:16 2015
GPGPU-Sim PTX: 16600000 instructions simulated : ctaid=(73,0,0) tid=(63,0,0)
GPGPU-Sim PTX: 16700000 instructions simulated : ctaid=(45,0,0) tid=(95,0,0)
GPGPU-Sim uArch: cycles simulated: 61000  inst.: 16688800 (ipc=273.6) sim_rate=98750 (inst/sec) elapsed = 0:0:02:49 / Tue May 12 20:36:18 2015
GPGPU-Sim PTX: 16800000 instructions simulated : ctaid=(47,0,0) tid=(95,0,0)
GPGPU-Sim PTX: 16900000 instructions simulated : ctaid=(61,0,0) tid=(63,0,0)
GPGPU-Sim uArch: cycles simulated: 61500  inst.: 16902688 (ipc=274.8) sim_rate=98846 (inst/sec) elapsed = 0:0:02:51 / Tue May 12 20:36:20 2015
GPGPU-Sim PTX: 17000000 instructions simulated : ctaid=(47,0,0) tid=(95,0,0)
GPGPU-Sim PTX: 17100000 instructions simulated : ctaid=(86,0,0) tid=(95,0,0)
GPGPU-Sim uArch: cycles simulated: 62000  inst.: 17117664 (ipc=276.1) sim_rate=98946 (inst/sec) elapsed = 0:0:02:53 / Tue May 12 20:36:22 2015
GPGPU-Sim PTX: 17200000 instructions simulated : ctaid=(85,0,0) tid=(31,0,0)
GPGPU-Sim PTX: 17300000 instructions simulated : ctaid=(78,0,0) tid=(63,0,0)
GPGPU-Sim uArch: cycles simulated: 62500  inst.: 17327584 (ipc=277.2) sim_rate=99583 (inst/sec) elapsed = 0:0:02:54 / Tue May 12 20:36:23 2015
GPGPU-Sim PTX: 17400000 instructions simulated : ctaid=(82,0,0) tid=(63,0,0)
GPGPU-Sim PTX: 17500000 instructions simulated : ctaid=(52,0,0) tid=(127,0,0)
GPGPU-Sim uArch: cycles simulated: 63000  inst.: 17534912 (ipc=278.3) sim_rate=99630 (inst/sec) elapsed = 0:0:02:56 / Tue May 12 20:36:25 2015
GPGPU-Sim PTX: 17600000 instructions simulated : ctaid=(76,0,0) tid=(63,0,0)
GPGPU-Sim PTX: 17700000 instructions simulated : ctaid=(63,0,0) tid=(63,0,0)
GPGPU-Sim uArch: cycles simulated: 63500  inst.: 17740896 (ipc=279.4) sim_rate=99667 (inst/sec) elapsed = 0:0:02:58 / Tue May 12 20:36:27 2015
GPGPU-Sim PTX: 17800000 instructions simulated : ctaid=(86,0,0) tid=(127,0,0)
GPGPU-Sim PTX: 17900000 instructions simulated : ctaid=(74,0,0) tid=(127,0,0)
GPGPU-Sim PTX: 18000000 instructions simulated : ctaid=(64,0,0) tid=(95,0,0)
GPGPU-Sim uArch: cycles simulated: 64000  inst.: 17944992 (ipc=280.4) sim_rate=99694 (inst/sec) elapsed = 0:0:03:00 / Tue May 12 20:36:29 2015
GPGPU-Sim PTX: 18100000 instructions simulated : ctaid=(60,0,0) tid=(127,0,0)
GPGPU-Sim PTX: 18200000 instructions simulated : ctaid=(52,0,0) tid=(63,0,0)
GPGPU-Sim uArch: cycles simulated: 64500  inst.: 18146080 (ipc=281.3) sim_rate=100254 (inst/sec) elapsed = 0:0:03:01 / Tue May 12 20:36:30 2015
GPGPU-Sim PTX: 18300000 instructions simulated : ctaid=(88,0,0) tid=(63,0,0)
GPGPU-Sim PTX: 18400000 instructions simulated : ctaid=(50,0,0) tid=(63,0,0)
GPGPU-Sim uArch: cycles simulated: 65000  inst.: 18345920 (ipc=282.2) sim_rate=100250 (inst/sec) elapsed = 0:0:03:03 / Tue May 12 20:36:32 2015
GPGPU-Sim PTX: 18500000 instructions simulated : ctaid=(59,0,0) tid=(95,0,0)
GPGPU-Sim uArch: cycles simulated: 65500  inst.: 18543840 (ipc=283.1) sim_rate=100236 (inst/sec) elapsed = 0:0:03:05 / Tue May 12 20:36:34 2015
GPGPU-Sim PTX: 18600000 instructions simulated : ctaid=(57,0,0) tid=(31,0,0)
GPGPU-Sim PTX: 18700000 instructions simulated : ctaid=(82,0,0) tid=(127,0,0)
GPGPU-Sim uArch: cycles simulated: 66000  inst.: 18741248 (ipc=284.0) sim_rate=100759 (inst/sec) elapsed = 0:0:03:06 / Tue May 12 20:36:35 2015
GPGPU-Sim PTX: 18800000 instructions simulated : ctaid=(79,0,0) tid=(63,0,0)
GPGPU-Sim PTX: 18900000 instructions simulated : ctaid=(70,0,0) tid=(95,0,0)
GPGPU-Sim uArch: cycles simulated: 66500  inst.: 18943936 (ipc=284.9) sim_rate=100765 (inst/sec) elapsed = 0:0:03:08 / Tue May 12 20:36:37 2015
GPGPU-Sim PTX: 19000000 instructions simulated : ctaid=(83,0,0) tid=(127,0,0)
GPGPU-Sim PTX: 19100000 instructions simulated : ctaid=(82,0,0) tid=(127,0,0)
GPGPU-Sim PTX: 19200000 instructions simulated : ctaid=(47,0,0) tid=(127,0,0)
GPGPU-Sim uArch: cycles simulated: 67000  inst.: 19146624 (ipc=285.8) sim_rate=100771 (inst/sec) elapsed = 0:0:03:10 / Tue May 12 20:36:39 2015
GPGPU-Sim PTX: 19300000 instructions simulated : ctaid=(60,0,0) tid=(31,0,0)
GPGPU-Sim PTX: 19400000 instructions simulated : ctaid=(78,0,0) tid=(95,0,0)
GPGPU-Sim uArch: cycles simulated: 67500  inst.: 19349344 (ipc=286.7) sim_rate=100777 (inst/sec) elapsed = 0:0:03:12 / Tue May 12 20:36:41 2015
GPGPU-Sim PTX: 19500000 instructions simulated : ctaid=(79,0,0) tid=(95,0,0)
GPGPU-Sim PTX: 19600000 instructions simulated : ctaid=(87,0,0) tid=(63,0,0)
GPGPU-Sim uArch: cycles simulated: 68000  inst.: 19545312 (ipc=287.4) sim_rate=101271 (inst/sec) elapsed = 0:0:03:13 / Tue May 12 20:36:42 2015
GPGPU-Sim PTX: 19700000 instructions simulated : ctaid=(66,0,0) tid=(63,0,0)
GPGPU-Sim uArch: cycles simulated: 68500  inst.: 19738784 (ipc=288.2) sim_rate=101224 (inst/sec) elapsed = 0:0:03:15 / Tue May 12 20:36:44 2015
GPGPU-Sim PTX: 19800000 instructions simulated : ctaid=(48,0,0) tid=(31,0,0)
GPGPU-Sim PTX: 19900000 instructions simulated : ctaid=(53,0,0) tid=(31,0,0)
GPGPU-Sim uArch: cycles simulated: 69000  inst.: 19928864 (ipc=288.8) sim_rate=101161 (inst/sec) elapsed = 0:0:03:17 / Tue May 12 20:36:46 2015
GPGPU-Sim PTX: 20000000 instructions simulated : ctaid=(76,0,0) tid=(63,0,0)
GPGPU-Sim PTX: 20100000 instructions simulated : ctaid=(62,0,0) tid=(31,0,0)
GPGPU-Sim uArch: cycles simulated: 69500  inst.: 20119808 (ipc=289.5) sim_rate=101615 (inst/sec) elapsed = 0:0:03:18 / Tue May 12 20:36:47 2015
GPGPU-Sim PTX: 20200000 instructions simulated : ctaid=(61,0,0) tid=(31,0,0)
GPGPU-Sim PTX: 20300000 instructions simulated : ctaid=(52,0,0) tid=(63,0,0)
GPGPU-Sim uArch: cycles simulated: 70000  inst.: 20313376 (ipc=290.2) sim_rate=101566 (inst/sec) elapsed = 0:0:03:20 / Tue May 12 20:36:49 2015
GPGPU-Sim PTX: 20400000 instructions simulated : ctaid=(69,0,0) tid=(31,0,0)
GPGPU-Sim PTX: 20500000 instructions simulated : ctaid=(80,0,0) tid=(63,0,0)
GPGPU-Sim uArch: cycles simulated: 70500  inst.: 20507872 (ipc=290.9) sim_rate=101524 (inst/sec) elapsed = 0:0:03:22 / Tue May 12 20:36:51 2015
GPGPU-Sim PTX: 20600000 instructions simulated : ctaid=(89,0,0) tid=(63,0,0)
GPGPU-Sim PTX: 20700000 instructions simulated : ctaid=(55,0,0) tid=(127,0,0)
GPGPU-Sim uArch: cycles simulated: 71000  inst.: 20704960 (ipc=291.6) sim_rate=101494 (inst/sec) elapsed = 0:0:03:24 / Tue May 12 20:36:53 2015
GPGPU-Sim PTX: 20800000 instructions simulated : ctaid=(66,0,0) tid=(127,0,0)
GPGPU-Sim PTX: 20900000 instructions simulated : ctaid=(54,0,0) tid=(31,0,0)
GPGPU-Sim uArch: cycles simulated: 71500  inst.: 20898816 (ipc=292.3) sim_rate=101945 (inst/sec) elapsed = 0:0:03:25 / Tue May 12 20:36:54 2015
GPGPU-Sim PTX: 21000000 instructions simulated : ctaid=(86,0,0) tid=(63,0,0)
GPGPU-Sim PTX: 21100000 instructions simulated : ctaid=(64,0,0) tid=(127,0,0)
GPGPU-Sim uArch: cycles simulated: 72000  inst.: 21088128 (ipc=292.9) sim_rate=101875 (inst/sec) elapsed = 0:0:03:27 / Tue May 12 20:36:56 2015
GPGPU-Sim PTX: 21200000 instructions simulated : ctaid=(85,0,0) tid=(31,0,0)
GPGPU-Sim PTX: 21300000 instructions simulated : ctaid=(71,0,0) tid=(31,0,0)
[...]
traffic_breakdown_memtocore[GLOBAL_ACC_R] = 259488 {136:1908,}
traffic_breakdown_memtocore[GLOBAL_ACC_W] = 196608 {8:24576,}
traffic_breakdown_memtocore[INST_ACC_R] = 5000720 {136:36770,}
maxmrqlatency = 191 
maxdqlatency = 0 
maxmflatency = 721 
averagemflatency = 237 
max_icnt2mem_latency = 453 
max_icnt2sh_latency = 357126 
mrq_lat_table:2762 	139 	246 	2124 	2031 	1261 	771 	40 	0 	0 	0 	0 	0 	0 	0 	0 	0 	0 	0 	0 	0 	0 	0 	0 	0 	0 	0 	0 	0 	0 	0 	0 	
dq_lat_table:0 	0 	0 	0 	0 	0 	0 	0 	0 	0 	0 	0 	0 	0 	0 	0 	0 	0 	0 	0 	0 	0 	0 	0 	0 	0 	0 	0 	0 	0 	0 	0 	
mf_lat_table:0 	0 	0 	0 	0 	0 	0 	17277 	8823 	399 	0 	0 	0 	0 	0 	0 	0 	0 	0 	0 	0 	0 	0 	0 	0 	0 	0 	0 	0 	0 	0 	0 	
icnt2mem_lat_table:0 	0 	0 	39622 	3745 	12139 	6554 	1050 	159 	0 	0 	0 	0 	0 	0 	0 	0 	0 	0 	0 	0 	0 	0 	0 	
icnt2sh_lat_table:0 	0 	0 	1731 	192 	0 	0 	0 	0 	0 	0 	0 	0 	0 	0 	2880 	4468 	9932 	7296 	0 	0 	0 	0 	0 	
mf_lat_pw_table:0 	0 	0 	0 	0 	0 	0 	127 	22 	0 	0 	0 	0 	0 	0 	0 	0 	0 	0 	0 	0 	0 	0 	0 	0 	0 	0 	0 	0 	0 	0 	0 	
maximum concurrent accesses to same row:
dram[0]:         7         8         6         5        10        10         0         0         0         0         0         0         0         0         0         0 
dram[1]:         8         8         6         4        10        10         0         0         0         0         0         0         0         0         0         0 
dram[2]:         8         8         6         4        10        12         0         0         0         0         0         0         0         0         0         0 
dram[3]:         8         8         6         4        10        12         0         0         0         0         0         0         0         0         0         0 
dram[4]:         8         8         6         4        10        12         0         0         0         0         0         0         0         0         0         0 
dram[5]:         7         8         6         4        10        12         0         0         0         0         0         0         0         0         0         0 
maximum service time to same row:
dram[0]:    142638    139387    187895    204431    315191    315625      3229      3253    106360    106771    185547    207581     55249     55338     55391     55547 
dram[1]:    142241    138631    187409    203897    315603    315639      3254      3276    106410    106813    185584    207640     55237     55272     55631     55573 
dram[2]:    141616    137939    186754    203212    315631    315701      3235      3259    106406    106821    186022    207668     55266     55318     55625     55563 
dram[3]:    141175    137286    206460    202525    315201    315510      3260      3282    106429    106843    207401    207716     55219     55243     55572     55580 
dram[4]:    140576    136602    205789    201829    315253    315521      3304      3265    106741    107076    207435    207838     55243     55276     55544     55651 
dram[5]:    139637    135678    205104    201069    315622    315533      3241      3288    106763    107101    207462    207847     55231     55225     55510     55456 
average row accesses per activate:
dram[0]: 42.250000 84.000000 83.000000 82.500000 60.000000 60.000000 32.000000 32.000000 32.000000 32.000000 32.000000 32.000000 72.000000 72.000000 160.000000 160.000000 
dram[1]: 84.000000 84.000000 83.000000 82.000000 60.000000 60.000000 32.000000 32.000000 32.000000 32.000000 32.000000 32.000000 72.000000 72.000000 160.000000 160.000000 
dram[2]: 84.000000 84.000000 83.000000 82.000000 60.000000 61.000000 32.000000 32.000000 32.000000 32.000000 32.000000 32.000000 72.000000 71.000000 160.000000 160.000000 
dram[3]: 84.000000 84.000000 83.000000 82.000000 60.000000 56.000000 32.000000 32.000000 32.000000 32.000000 32.000000 32.000000 72.000000 80.000000 160.000000 160.000000 
dram[4]: 84.000000 84.000000 83.000000 82.000000 60.000000 56.000000 32.000000 32.000000 32.000000 32.000000 32.000000 32.000000 72.000000 80.000000 160.000000 160.000000 
dram[5]: 83.500000 84.000000 83.000000 82.000000 60.000000 56.000000 32.000000 32.000000 32.000000 32.000000 32.000000 32.000000 72.000000 80.000000 160.000000 160.000000 
average row locality = 9374/134 = 69.955223
number of total memory accesses made:
dram[0]:         0         0         0         0         0         0         0         0         0         0         0         0         0         0         0         0 
dram[1]:         0         0         0         0         0         0         0         0         0         0         0         0         0         0         0         0 
dram[2]:         0         0         0         0         0         0         0         0         0         0         0         0         0         0         0         0 
dram[3]:         0         0         0         0         0         0         0         0         0         0         0         0         0         0         0         0 
dram[4]:         0         0         0         0         0         0         0         0         0         0         0         0         0         0         0         0 
dram[5]:         0         0         0         0         0         0         0         0         0         0         0         0         0         0         0         0 
total accesses: 0
min_bank_accesses = 0!
min_chip_accesses = 0!
number of total read accesses:
dram[0]:        41        40        38        37        32        32        32        32        32        32        32        32        32        32        32        32 
dram[1]:        40        40        38        36        32        32        32        32        32        32        32        32        32        32        32        32 
dram[2]:        40        40        38        36        32        34        32        32        32        32        32        32        32        31        32        32 
dram[3]:        40        40        38        36        32        32        32        32        32        32        32        32        32        32        32        32 
dram[4]:        40        40        38        36        32        32        32        32        32        32        32        32        32        32        32        32 
dram[5]:        39        40        38        36        32        32        32        32        32        32        32        32        32        32        32        32 
total reads: 3230
bank skew: 41/31 = 1.32
chip skew: 540/537 = 1.01
number of total write accesses:
dram[0]:       128       128       128       128        88        88         0         0         0         0         0         0        40        40       128       128 
dram[1]:       128       128       128       128        88        88         0         0         0         0         0         0        40        40       128       128 
dram[2]:       128       128       128       128        88        88         0         0         0         0         0         0        40        40       128       128 
dram[3]:       128       128       128       128        88        80         0         0         0         0         0         0        40        48       128       128 
dram[4]:       128       128       128       128        88        80         0         0         0         0         0         0        40        48       128       128 
dram[5]:       128       128       128       128        88        80         0         0         0         0         0         0        40        48       128       128 
total reads: 6144
min_bank_accesses = 0!
chip skew: 1024/1024 = 1.00
average mf latency per bank:
dram[0]:        715       677       709       688       667       671       332       338       326       322       333       331       670       963       828       825
dram[1]:        681       670       658       667       651       656       261       260       259       260       260       259       808       811       855       863
dram[2]:        674       688       686       678       666       693       333       331       331       331       331       322       735       744       790       834
dram[3]:        655       657       673       684       623       656       260       260       260       259       260       260       912       841       774       837
dram[4]:        659       683       699       694       654       658       343       342       335       335       322       329       735       789       834       795
dram[5]:        664       668       670       704       647       646       261       261       260       260       259       260       673       801       849       855
maximum mf latency per bank:
dram[0]:        416       409       429       383       357       379       272       271       268       268       270       268       555       700       621       641
dram[1]:        413       404       364       355       381       354       270       271       268       273       274       268       547       638       721       650
dram[2]:        413       451       355       368       371       379       273       269       274       268       268       268       506       667       687       624
dram[3]:        432       375       381       402       343       406       273       268       268       269       268       269       716       650       718       634
dram[4]:        430       396       417       389       363       374       367       301       272       267       268       269       600       681       635       632
dram[5]:        399       446       417       444       345       382       274       270       272       267       268       270       585       688       575       631

Number of Memory Banks Accessed per Memory Operation per Warp (from 0):
0	0	0	0	0	0	0	0	0	0	0	0	0	0	0	0	0	0	0	0	0	0	0	0	0	0	0	0	0	0	0	0	0	0	0	0	0	0	0	0	0	0	0	0	0	0	0	0	0	0	0	0	0	0	0	0	0	0	0	0	0	0	0	0	0	0	0	0	0	0	0	0	0	0	0	0	0	0	0	0	0	0	0	0	0	0	0	0	0	0	0	0	0	0	0	0	
Average # of Memory Banks Accessed per Memory Operation per Warp=-nan

position of mrq chosen
0	0	0	0	0	0	0	0	0	0	0	0	0	0	0	0	

average position of mrq chosen = -nan
Memory Partition 0: 
Cache L2_bank_000:
MSHR contents

Cache L2_bank_001:
MSHR contents

In Dram Latency Queue (total = 0): 
DRAM[0]: 16 bks, busW=4 BL=8 CL=12, tRRD=2 tCCD=6, tRCD=12 tRAS=28 tRP=12 tRC=40
n_cmd=471407 n_nop=469271 n_act=24 n_pre=8 n_req=1564 n_rd=1080 n_write=1024 bw_util=0.008926
n_activity=12791 dram_eff=0.329
bk0: 82a 470077i bk1: 80a 470063i bk2: 76a 470110i bk3: 74a 470148i bk4: 64a 470537i bk5: 64a 470500i bk6: 64a 471247i bk7: 64a 471220i bk8: 64a 471264i bk9: 64a 471258i bk10: 64a 471262i bk11: 64a 471243i bk12: 64a 470770i bk13: 64a 470656i bk14: 64a 469849i bk15: 64a 469979i 
dram_util_bins: 0 0 0 0 0 0 0 0 0 0
dram_eff_bins: 0 0 0 0 0 0 0 0 0 0
mrqq: max=16 avg=0.0986303
Memory Partition 1: 
Cache L2_bank_002:
MSHR contents

Cache L2_bank_003:
MSHR contents

In Dram Latency Queue (total = 0): 
DRAM[1]: 16 bks, busW=4 BL=8 CL=12, tRRD=2 tCCD=6, tRCD=12 tRAS=28 tRP=12 tRC=40
n_cmd=471407 n_nop=469279 n_act=22 n_pre=6 n_req=1562 n_rd=1076 n_write=1024 bw_util=0.008909
n_activity=12754 dram_eff=0.3293
bk0: 80a 470203i bk1: 80a 470196i bk2: 76a 470250i bk3: 72a 470182i bk4: 64a 470477i bk5: 64a 470478i bk6: 64a 471237i bk7: 64a 471225i bk8: 64a 471263i bk9: 64a 471254i bk10: 64a 471259i bk11: 64a 471250i bk12: 64a 470859i bk13: 64a 470738i bk14: 64a 469974i bk15: 64a 469864i 
dram_util_bins: 0 0 0 0 0 0 0 0 0 0
dram_eff_bins: 0 0 0 0 0 0 0 0 0 0
mrqq: max=16 avg=0.0959574
Memory Partition 2: 
Cache L2_bank_004:
MSHR contents

Cache L2_bank_005:
MSHR contents

In Dram Latency Queue (total = 0): 
DRAM[2]: 16 bks, busW=4 BL=8 CL=12, tRRD=2 tCCD=6, tRCD=12 tRAS=28 tRP=12 tRC=40
n_cmd=471407 n_nop=469277 n_act=22 n_pre=6 n_req=1563 n_rd=1078 n_write=1024 bw_util=0.008918
n_activity=12880 dram_eff=0.3264
bk0: 80a 470147i bk1: 80a 470177i bk2: 76a 470215i bk3: 72a 470157i bk4: 64a 470492i bk5: 68a 470475i bk6: 64a 471250i bk7: 64a 471236i bk8: 64a 471264i bk9: 64a 471253i bk10: 64a 471265i bk11: 64a 471258i bk12: 64a 470819i bk13: 62a 470739i bk14: 64a 470001i bk15: 64a 469917i 
dram_util_bins: 0 0 0 0 0 0 0 0 0 0
dram_eff_bins: 0 0 0 0 0 0 0 0 0 0
mrqq: max=16 avg=0.0927903
Memory Partition 3: 
Cache L2_bank_006:
MSHR contents

Cache L2_bank_007:
MSHR contents

In Dram Latency Queue (total = 0): 
DRAM[3]: 16 bks, busW=4 BL=8 CL=12, tRRD=2 tCCD=6, tRCD=12 tRAS=28 tRP=12 tRC=40
n_cmd=471407 n_nop=469279 n_act=22 n_pre=6 n_req=1562 n_rd=1076 n_write=1024 bw_util=0.008909
n_activity=12998 dram_eff=0.3231
bk0: 80a 470159i bk1: 80a 470128i bk2: 76a 470201i bk3: 72a 470225i bk4: 64a 470577i bk5: 64a 470599i bk6: 64a 471249i bk7: 64a 471240i bk8: 64a 471263i bk9: 64a 471259i bk10: 64a 471258i bk11: 64a 471260i bk12: 64a 470821i bk13: 64a 470654i bk14: 64a 469978i bk15: 64a 469918i 
dram_util_bins: 0 0 0 0 0 0 0 0 0 0
dram_eff_bins: 0 0 0 0 0 0 0 0 0 0
mrqq: max=16 avg=0.0933015
Memory Partition 4: 
Cache L2_bank_008:
MSHR contents

Cache L2_bank_009:
MSHR contents

In Dram Latency Queue (total = 0): 
DRAM[4]: 16 bks, busW=4 BL=8 CL=12, tRRD=2 tCCD=6, tRCD=12 tRAS=28 tRP=12 tRC=40
n_cmd=471407 n_nop=469279 n_act=22 n_pre=6 n_req=1562 n_rd=1076 n_write=1024 bw_util=0.008909
n_activity=12945 dram_eff=0.3244
bk0: 80a 470204i bk1: 80a 470159i bk2: 76a 470209i bk3: 72a 470224i bk4: 64a 470575i bk5: 64a 470610i bk6: 64a 471238i bk7: 64a 471176i bk8: 64a 471257i bk9: 64a 471255i bk10: 64a 471257i bk11: 64a 471249i bk12: 64a 470756i bk13: 64a 470656i bk14: 64a 470067i bk15: 64a 470046i 
dram_util_bins: 0 0 0 0 0 0 0 0 0 0
dram_eff_bins: 0 0 0 0 0 0 0 0 0 0
mrqq: max=16 avg=0.0878137
Memory Partition 5: 
Cache L2_bank_010:
MSHR contents

Cache L2_bank_011:
MSHR contents

In Dram Latency Queue (total = 0): 
DRAM[5]: 16 bks, busW=4 BL=8 CL=12, tRRD=2 tCCD=6, tRCD=12 tRAS=28 tRP=12 tRC=40
n_cmd=471407 n_nop=469281 n_act=22 n_pre=6 n_req=1561 n_rd=1074 n_write=1024 bw_util=0.008901
n_activity=12635 dram_eff=0.3321
bk0: 78a 470089i bk1: 80a 470118i bk2: 76a 470197i bk3: 72a 470155i bk4: 64a 470552i bk5: 64a 470584i bk6: 64a 471245i bk7: 64a 471232i bk8: 64a 471259i bk9: 64a 471249i bk10: 64a 471251i bk11: 64a 471243i bk12: 64a 470711i bk13: 64a 470576i bk14: 64a 469858i bk15: 64a 469818i 
dram_util_bins: 0 0 0 0 0 0 0 0 0 0
dram_eff_bins: 0 0 0 0 0 0 0 0 0 0
mrqq: max=16 avg=0.104481

========= L2 cache stats =========
L2_cache_bank[0]: Access = 5548, Miss = 271, Miss_rate = 0.049, Pending_hits = 430, Reservation_fails = 1482
L2_cache_bank[1]: Access = 5293, Miss = 269, Miss_rate = 0.051, Pending_hits = 425, Reservation_fails = 1693
L2_cache_bank[2]: Access = 5468, Miss = 270, Miss_rate = 0.049, Pending_hits = 426, Reservation_fails = 1569
L2_cache_bank[3]: Access = 4996, Miss = 268, Miss_rate = 0.054, Pending_hits = 420, Reservation_fails = 1404
L2_cache_bank[4]: Access = 5530, Miss = 270, Miss_rate = 0.049, Pending_hits = 426, Reservation_fails = 1372
L2_cache_bank[5]: Access = 5071, Miss = 269, Miss_rate = 0.053, Pending_hits = 421, Reservation_fails = 1237
L2_cache_bank[6]: Access = 5466, Miss = 270, Miss_rate = 0.049, Pending_hits = 426, Reservation_fails = 1502
L2_cache_bank[7]: Access = 5016, Miss = 268, Miss_rate = 0.053, Pending_hits = 420, Reservation_fails = 1554
L2_cache_bank[8]: Access = 5530, Miss = 270, Miss_rate = 0.049, Pending_hits = 429, Reservation_fails = 1401
L2_cache_bank[9]: Access = 5083, Miss = 268, Miss_rate = 0.053, Pending_hits = 425, Reservation_fails = 1415
L2_cache_bank[10]: Access = 5245, Miss = 269, Miss_rate = 0.051, Pending_hits = 423, Reservation_fails = 1470
L2_cache_bank[11]: Access = 5023, Miss = 268, Miss_rate = 0.053, Pending_hits = 420, Reservation_fails = 1341
L2_total_cache_accesses = 63269
L2_total_cache_misses = 3230
L2_total_cache_miss_rate = 0.0511
L2_total_cache_pending_hits = 5091
L2_total_cache_reservation_fails = 17440
L2_total_cache_breakdown:
	L2_cache_stats_breakdown[GLOBAL_ACC_R][HIT] = 359
	L2_cache_stats_breakdown[GLOBAL_ACC_R][HIT_RESERVED] = 12
	L2_cache_stats_breakdown[GLOBAL_ACC_R][MISS] = 1537
	L2_cache_stats_breakdown[CONST_ACC_R][HIT] = 11
	L2_cache_stats_breakdown[CONST_ACC_R][HIT_RESERVED] = 3
	L2_cache_stats_breakdown[CONST_ACC_R][MISS] = 1
	L2_cache_stats_breakdown[CONST_ACC_R][RESERVATION_FAIL] = 109
	L2_cache_stats_breakdown[GLOBAL_ACC_W][HIT] = 18432
	L2_cache_stats_breakdown[GLOBAL_ACC_W][HIT_RESERVED] = 4608
	L2_cache_stats_breakdown[GLOBAL_ACC_W][MISS] = 1536
	L2_cache_stats_breakdown[GLOBAL_ACC_W][RESERVATION_FAIL] = 2900
	L2_cache_stats_breakdown[INST_ACC_R][HIT] = 36146
	L2_cache_stats_breakdown[INST_ACC_R][HIT_RESERVED] = 468
	L2_cache_stats_breakdown[INST_ACC_R][MISS] = 156
	L2_cache_stats_breakdown[INST_ACC_R][RESERVATION_FAIL] = 14431
L2_cache_data_port_util = 0.038
L2_cache_fill_port_util = 0.003

icnt_total_pkts_mem_to_simt=218011
icnt_total_pkts_simt_to_mem=87845
LD_mem_lat_dist  0 0 0 0 0 0 0 0 0 0 0 0 0 0 0 0 0 0 0 0 0 0 0 0 0 0 0
ST_mem_lat_dist  0 0 0 0 0 0 0 0 0 0 0 0 0 0 0 0 0 0 0 0 0 0 0 0 0 0 0
----------------------------Interconnect-DETAILS--------------------------------
Class 0:
Packet latency average = 13.9849
	minimum = 6
	maximum = 243
Network latency average = 10.866
	minimum = 6
	maximum = 216
Slowest packet = 6075
Flit latency average = 8.567
	minimum = 6
	maximum = 215
Slowest flit = 17795
Fragmentation average = 0
	minimum = 0
	maximum = 0
Injected packet rate average = 0.013123
	minimum = 0.0110773 (at node 14)
	maximum = 0.0155351 (at node 15)
Accepted packet rate average = 0.013123
	minimum = 0.0110773 (at node 14)
	maximum = 0.0155351 (at node 15)
Injected flit rate average = 0.0317198
	minimum = 0.0153783 (at node 14)
	maximum = 0.0546528 (at node 15)
Accepted flit rate average= 0.0317198
	minimum = 0.0197241 (at node 18)
	maximum = 0.0412654 (at node 12)
Injected packet length average = 2.41711
Accepted packet length average = 2.41711
Total in-flight flits = 0 (0 measured)
====== Overall Traffic Statistics ======
====== Traffic class 0 ======
Packet latency average = 13.9849 (1 samples)
	minimum = 6 (1 samples)
	maximum = 243 (1 samples)
Network latency average = 10.866 (1 samples)
	minimum = 6 (1 samples)
	maximum = 216 (1 samples)
Flit latency average = 8.567 (1 samples)
	minimum = 6 (1 samples)
	maximum = 215 (1 samples)
Fragmentation average = 0 (1 samples)
	minimum = 0 (1 samples)
	maximum = 0 (1 samples)
Injected packet rate average = 0.013123 (1 samples)
	minimum = 0.0110773 (1 samples)
	maximum = 0.0155351 (1 samples)
Accepted packet rate average = 0.013123 (1 samples)
	minimum = 0.0110773 (1 samples)
	maximum = 0.0155351 (1 samples)
Injected flit rate average = 0.0317198 (1 samples)
	minimum = 0.0153783 (1 samples)
	maximum = 0.0546528 (1 samples)
Accepted flit rate average = 0.0317198 (1 samples)
	minimum = 0.0197241 (1 samples)
	maximum = 0.0412654 (1 samples)
Injected packet size average = 2.41711 (1 samples)
Accepted packet size average = 2.41711 (1 samples)
Hops average = 1 (1 samples)
----------------------------END-of-Interconnect-DETAILS-------------------------


gpgpu_simulation_time = 0 days, 0 hrs, 20 min, 12 sec (1212 sec)
GPGPU-Sim API: Stream Manager State
gpgpu_simulation_rate = 103738 (inst/sec)
gpgpu_simulation_rate = 294 (cycle/sec)
GPGPU-Sim: detected inactive GPU simulation thread

== GPU Timing ==
GPU init                 : 0.012000
Host input buffer alloc  : 0.010000
-----
Host output buffer alloc : 0.003000
GPU memory alloc         : 0.003000
Data copy in             : 25.987000
Kernel execution         : 1211250.000000
Data copy out            : 51.820000
Last hasing stage        : 0.000000
GPU Proc. Time (gpu init and input alloc are not included):  1211327.875000 

== CPU Execution Context ==
Threads       : 128
Blocks        : 384
Total Threads : 49152
Total Size    : 196656
Chunk Size    : 52
Padding       : 0

CPU Processing time(ms):    15.514000 

Output size: 196608
Test PASSED
CPU GPU
FD FD
DD DD
2 2
F9 F9
