

        *** GPGPU-Sim Simulator Version 3.2.2  [build 0] ***


GPGPU-Sim PTX: simulation mode 0 (can change with PTX_SIM_MODE_FUNC environment variable:
               1=functional simulation only, 0=detailed performance simulator)
GPGPU-Sim: Configuration options:

-network_mode                           1 # Interconnection network mode
-inter_config_file   config_fermi_islip.icnt # Interconnection network config file
-gpgpu_ptx_use_cuobjdump                    1 # Use cuobjdump to extract ptx and sass from binaries
-gpgpu_experimental_lib_support                    0 # Try to extract code from cuda libraries [Broken because of unknown cudaGetExportTable]
-gpgpu_ptx_convert_to_ptxplus                    0 # Convert SASS (native ISA) to ptxplus and run ptxplus
-gpgpu_ptx_force_max_capability                   20 # Force maximum compute capability
-gpgpu_ptx_inst_debug_to_file                    0 # Dump executed instructions' debug information to file
-gpgpu_ptx_inst_debug_file       inst_debug.txt # Executed instructions' debug output file
-gpgpu_ptx_inst_debug_thread_uid                    1 # Thread UID for executed instructions' debug output
-gpgpu_simd_model                       1 # 1 = post-dominator
-gpgpu_shader_core_pipeline              1536:32 # shader core pipeline config, i.e., {<nthread>:<warpsize>}
-gpgpu_tex_cache:l1  4:128:24,L:R:m:N:L,F:128:4,128:2 # per-shader L1 texture cache  (READ-ONLY) config  {<nsets>:<bsize>:<assoc>,<rep>:<wr>:<alloc>:<wr_alloc>,<mshr>:<N>:<merge>,<mq>:<rf>}
-gpgpu_const_cache:l1 64:64:2,L:R:f:N:L,A:2:32,4 # per-shader L1 constant memory cache  (READ-ONLY) config  {<nsets>:<bsize>:<assoc>,<rep>:<wr>:<alloc>:<wr_alloc>,<mshr>:<N>:<merge>,<mq>} 
-gpgpu_cache:il1     4:128:4,L:R:f:N:L,A:2:32,4 # shader L1 instruction cache config  {<nsets>:<bsize>:<assoc>,<rep>:<wr>:<alloc>:<wr_alloc>,<mshr>:<N>:<merge>,<mq>} 
-gpgpu_cache:dl1     32:128:4,L:L:m:N:H,A:32:8,8 # per-shader L1 data cache config  {<nsets>:<bsize>:<assoc>,<rep>:<wr>:<alloc>:<wr_alloc>,<mshr>:<N>:<merge>,<mq> | none}
-gpgpu_cache:dl1PrefL1                 none # per-shader L1 data cache config  {<nsets>:<bsize>:<assoc>,<rep>:<wr>:<alloc>:<wr_alloc>,<mshr>:<N>:<merge>,<mq> | none}
-gpgpu_cache:dl1PreShared                 none # per-shader L1 data cache config  {<nsets>:<bsize>:<assoc>,<rep>:<wr>:<alloc>:<wr_alloc>,<mshr>:<N>:<merge>,<mq> | none}
-gmem_skip_L1D                          0 # global memory access skip L1D cache (implements -Xptxas -dlcm=cg, default=no skip)
-gpgpu_perfect_mem                      0 # enable perfect memory mode (no cache miss)
-n_regfile_gating_group                    4 # group of lanes that should be read/written together)
-gpgpu_clock_gated_reg_file                    0 # enable clock gated reg file for power calculations
-gpgpu_clock_gated_lanes                    0 # enable clock gated lanes for power calculations
-gpgpu_shader_registers                32768 # Number of registers per shader core. Limits number of concurrent CTAs. (default 8192)
-gpgpu_shader_cta                       8 # Maximum number of concurrent CTAs in shader (default 8)
-gpgpu_num_cta_barriers                   16 # Maximum number of named barriers per CTA (default 16)
-gpgpu_n_clusters                      15 # number of processing clusters
-gpgpu_n_cores_per_cluster                    1 # number of simd cores per cluster
-gpgpu_n_cluster_ejection_buffer_size                    8 # number of packets in ejection buffer
-gpgpu_n_ldst_response_buffer_size                    2 # number of response packets in ld/st unit ejection buffer
-gpgpu_shmem_size                   16384 # Size of shared memory per shader core (default 16kB)
-gpgpu_shmem_size                   49152 # Size of shared memory per shader core (default 16kB)
-gpgpu_shmem_size_PrefL1                16384 # Size of shared memory per shader core (default 16kB)
-gpgpu_shmem_size_PrefShared                16384 # Size of shared memory per shader core (default 16kB)
-gpgpu_shmem_num_banks                   32 # Number of banks in the shared memory in each shader core (default 16)
-gpgpu_shmem_limited_broadcast                    0 # Limit shared memory to do one broadcast per cycle (default on)
-gpgpu_shmem_warp_parts                    1 # Number of portions a warp is divided into for shared memory bank conflict check 
-gpgpu_warpdistro_shader                   -1 # Specify which shader core to collect the warp size distribution from
-gpgpu_warp_issue_shader                    0 # Specify which shader core to collect the warp issue distribution from
-gpgpu_local_mem_map                    1 # Mapping from local memory space address to simulated GPU physical address space (default = enabled)
-gpgpu_num_reg_banks                   16 # Number of register banks (default = 8)
-gpgpu_reg_bank_use_warp_id                    0 # Use warp ID in mapping registers to banks (default = off)
-gpgpu_operand_collector_num_units_sp                    6 # number of collector units (default = 4)
-gpgpu_operand_collector_num_units_sfu                    8 # number of collector units (default = 4)
-gpgpu_operand_collector_num_units_mem                    2 # number of collector units (default = 2)
-gpgpu_operand_collector_num_units_gen                    0 # number of collector units (default = 0)
-gpgpu_operand_collector_num_in_ports_sp                    2 # number of collector unit in ports (default = 1)
-gpgpu_operand_collector_num_in_ports_sfu                    1 # number of collector unit in ports (default = 1)
-gpgpu_operand_collector_num_in_ports_mem                    1 # number of collector unit in ports (default = 1)
-gpgpu_operand_collector_num_in_ports_gen                    0 # number of collector unit in ports (default = 0)
-gpgpu_operand_collector_num_out_ports_sp                    2 # number of collector unit in ports (default = 1)
-gpgpu_operand_collector_num_out_ports_sfu                    1 # number of collector unit in ports (default = 1)
-gpgpu_operand_collector_num_out_ports_mem                    1 # number of collector unit in ports (default = 1)
-gpgpu_operand_collector_num_out_ports_gen                    0 # number of collector unit in ports (default = 0)
-gpgpu_coalesce_arch                   13 # Coalescing arch (default = 13, anything else is off for now)
-gpgpu_num_sched_per_core                    1 # Number of warp schedulers per core
-gpgpu_max_insn_issue_per_warp                    1 # Max number of instructions that can be issued per warp in one cycle by scheduler
-gpgpu_simt_core_sim_order                    1 # Select the simulation order of cores in a cluster (0=Fix, 1=Round-Robin)
-gpgpu_pipeline_widths        2,1,1,2,1,1,2 # Pipeline widths ID_OC_SP,ID_OC_SFU,ID_OC_MEM,OC_EX_SP,OC_EX_SFU,OC_EX_MEM,EX_WB
-gpgpu_num_sp_units                     2 # Number of SP units (default=1)
-gpgpu_num_sfu_units                    1 # Number of SF units (default=1)
-gpgpu_num_mem_units                    1 # Number if ldst units (default=1) WARNING: not hooked up to anything
-gpgpu_scheduler                      gto # Scheduler configuration: < lrr | gto | two_level_active > If two_level_active:<num_active_warps>:<inner_prioritization>:<outer_prioritization>For complete list of prioritization values see shader.h enum scheduler_prioritization_typeDefault: gto
-gpgpu_dram_scheduler                    1 # 0 = fifo, 1 = FR-FCFS (defaul)
-gpgpu_dram_partition_queues              8:8:8:8 # i2$:$2d:d2$:$2i
-l2_ideal                               0 # Use a ideal L2 cache that always hit
-gpgpu_cache:dl2     64:128:8,L:B:m:W:L,A:32:4,4:0,32 # unified banked L2 data cache config  {<nsets>:<bsize>:<assoc>,<rep>:<wr>:<alloc>:<wr_alloc>,<mshr>:<N>:<merge>,<mq>}
-gpgpu_cache:dl2_texture_only                    0 # L2 cache used for texture only
-gpgpu_n_mem                            6 # number of memory modules (e.g. memory controllers) in gpu
-gpgpu_n_sub_partition_per_mchannel                    2 # number of memory subpartition in each memory module
-gpgpu_n_mem_per_ctrlr                    2 # number of memory chips per memory controller
-gpgpu_memlatency_stat                   14 # track and display latency statistics 0x2 enables MC, 0x4 enables queue logs
-gpgpu_frfcfs_dram_sched_queue_size                   16 # 0 = unlimited (default); # entries per chip
-gpgpu_dram_return_queue_size                  116 # 0 = unlimited (default); # entries per chip
-gpgpu_dram_buswidth                    4 # default = 4 bytes (8 bytes per cycle at DDR)
-gpgpu_dram_burst_length                    8 # Burst length of each DRAM request (default = 4 data bus cycle)
-dram_data_command_freq_ratio                    4 # Frequency ratio between DRAM data bus and command bus (default = 2 times, i.e. DDR)
-gpgpu_dram_timing_opt nbk=16:CCD=2:RRD=6:RCD=12:RAS=28:RP=12:RC=40: CL=12:WL=4:CDLR=5:WR=12:nbkgrp=4:CCDL=3:RTPL=2 # DRAM timing parameters = {nbk:tCCD:tRRD:tRCD:tRAS:tRP:tRC:CL:WL:tCDLR:tWR:nbkgrp:tCCDL:tRTPL}
-rop_latency                          120 # ROP queue latency (default 85)
-dram_latency                         100 # DRAM latency (default 30)
-gpgpu_mem_addr_mapping dramid@8;00000000.00000000.00000000.00000000.0000RRRR.RRRRRRRR.BBBCCCCB.CCSSSSSS # mapping memory address to dram model {dramid@<start bit>;<memory address map>}
-gpgpu_mem_addr_test                    0 # run sweep test to check address mapping for aliased address
-gpgpu_mem_address_mask                    1 # 0 = old addressing mask, 1 = new addressing mask, 2 = new add. mask + flipped bank sel and chip sel bits
-gpuwattch_xml_file  gpuwattch_gtx480.xml # GPUWattch XML file
-power_simulation_enabled                    1 # Turn on power simulator (1=On, 0=Off)
-power_per_cycle_dump                    0 # Dump detailed power output each cycle
-power_trace_enabled                    0 # produce a file for the power trace (1=On, 0=Off)
-power_trace_zlevel                     6 # Compression level of the power trace output log (0=no comp, 9=highest)
-steady_power_levels_enabled                    0 # produce a file for the steady power levels (1=On, 0=Off)
-steady_state_definition                  8:4 # allowed deviation:number of samples
-gpgpu_max_cycle                        0 # terminates gpu simulation early (0 = no limit)
-gpgpu_max_insn                         0 # terminates gpu simulation early (0 = no limit)
-gpgpu_max_cta                          0 # terminates gpu simulation early (0 = no limit)
-gpgpu_runtime_stat                   500 # display runtime statistics such as dram utilization {<freq>:<flag>}
-liveness_message_freq                    1 # Minimum number of seconds between simulation liveness messages (0 = always print)
-gpgpu_flush_l1_cache                    0 # Flush L1 cache at the end of each kernel call
-gpgpu_flush_l2_cache                    0 # Flush L2 cache at the end of each kernel call
-gpgpu_deadlock_detect                    1 # Stop the simulation at deadlock (1=on (default), 0=off)
-gpgpu_ptx_instruction_classification                    0 # if enabled will classify ptx instruction types per kernel (Max 255 kernels now)
-gpgpu_ptx_sim_mode                     0 # Select between Performance (default) or Functional simulation (1)
-gpgpu_clock_domains 700.0:700.0:700.0:924.0 # Clock Domain Frequencies in MhZ {<Core Clock>:<ICNT Clock>:<L2 Clock>:<DRAM Clock>}
-gpgpu_max_concurrent_kernel                    8 # maximum kernels that can run concurrently on GPU
-gpgpu_cflog_interval                    0 # Interval between each snapshot in control flow logger
-visualizer_enabled                     0 # Turn on visualizer output (1=On, 0=Off)
-visualizer_outputfile                 NULL # Specifies the output log file for visualizer
-visualizer_zlevel                      6 # Compression level of the visualizer output log (0=no comp, 9=highest)
-trace_enabled                          0 # Turn on traces
-trace_components                    none # comma seperated list of traces to enable. Complete list found in trace_streams.tup. Default none
-trace_sampling_core                    0 # The core which is printed using CORE_DPRINTF. Default 0
-trace_sampling_memory_partition                   -1 # The memory partition which is printed using MEMPART_DPRINTF. Default -1 (i.e. all)
-enable_ptx_file_line_stats                    1 # Turn on PTX source line statistic profiling. (1 = On)
-ptx_line_stats_filename gpgpu_inst_stats.txt # Output file for PTX source line statistics.
-save_embedded_ptx                      0 # saves ptx files embedded in binary as <n>.ptx
-keep                                   0 # keep intermediate files created by GPGPU-Sim when interfacing with external programs
-gpgpu_ptx_save_converted_ptxplus                    0 # Saved converted ptxplus to a file
-ptx_opcode_latency_int         4,13,4,5,145 # Opcode latencies for integers <ADD,MAX,MUL,MAD,DIV>Default 1,1,19,25,145
-ptx_opcode_latency_fp          4,13,4,5,39 # Opcode latencies for single precision floating points <ADD,MAX,MUL,MAD,DIV>Default 1,1,1,1,30
-ptx_opcode_latency_dp         8,19,8,8,330 # Opcode latencies for double precision floating points <ADD,MAX,MUL,MAD,DIV>Default 8,8,8,8,335
-ptx_opcode_initiation_int            1,2,2,1,8 # Opcode initiation intervals for integers <ADD,MAX,MUL,MAD,DIV>Default 1,1,4,4,32
-ptx_opcode_initiation_fp            1,2,1,1,4 # Opcode initiation intervals for single precision floating points <ADD,MAX,MUL,MAD,DIV>Default 1,1,1,1,5
-ptx_opcode_initiation_dp         8,16,8,8,130 # Opcode initiation intervals for double precision floating points <ADD,MAX,MUL,MAD,DIV>Default 8,8,8,8,130
DRAM Timing Options:
nbk                                    16 # number of banks
CCD                                     2 # column to column delay
RRD                                     6 # minimal delay between activation of rows in different banks
RCD                                    12 # row to column delay
RAS                                    28 # time needed to activate row
RP                                     12 # time needed to precharge (deactivate) row
RC                                     40 # row cycle time
CDLR                                    5 # switching from write to read (changes tWTR)
WR                                     12 # last data-in to row precharge
CL                                     12 # CAS latency
WL                                      4 # Write latency
nbkgrp                                  4 # number of bank groups
CCDL                                    3 # column to column delay between accesses to different bank groups
RTPL                                    2 # read to precharge delay between accesses to different bank groups
Total number of memory sub partition = 12
addr_dec_mask[CHIP]  = 0000000000000000 	high:64 low:0
addr_dec_mask[BK]    = 000000000000e100 	high:16 low:8
addr_dec_mask[ROW]   = 000000000fff0000 	high:28 low:16
addr_dec_mask[COL]   = 0000000000001eff 	high:13 low:0
addr_dec_mask[BURST] = 000000000000003f 	high:6 low:0
sub_partition_id_mask = 0000000000000100
GPGPU-Sim uArch: clock freqs: 700000000.000000:700000000.000000:700000000.000000:924000000.000000
GPGPU-Sim uArch: clock periods: 0.00000000142857142857:0.00000000142857142857:0.00000000142857142857:0.00000000108225108225
*** Initializing Memory Statistics ***
GPGPU-Sim uArch: interconnect node map (shaderID+MemID to icntID)
GPGPU-Sim uArch: Memory nodes ID start from index: 15
GPGPU-Sim uArch:    0   1   2   3   4
GPGPU-Sim uArch:    5   6   7   8   9
GPGPU-Sim uArch:   10  11  12  13  14
GPGPU-Sim uArch:   15  16  17  18  19
GPGPU-Sim uArch:   20  21  22  23  24
GPGPU-Sim uArch:   25  26
GPGPU-Sim uArch: interconnect node reverse map (icntID to shaderID+MemID)
GPGPU-Sim uArch: Memory nodes start from ID: 15
GPGPU-Sim uArch:    0   1   2   3   4
GPGPU-Sim uArch:    5   6   7   8   9
GPGPU-Sim uArch:   10  11  12  13  14
GPGPU-Sim uArch:   15  16  17  18  19
GPGPU-Sim uArch:   20  21  22  23  24
GPGPU-Sim uArch:   25  26
185d153370a1c7baba053f5ed71cf285  /home/kishore/project_source/gpu_class_proj/gpgpusim-benchmarks-master/bin/release/STO
GPGPU-Sim uArch: performance model initialization complete.
GPGPU-Sim PTX: __cudaRegisterFatBinary, fat_cubin_handle = 1, filename=main.cu
self exe links to: /home/kishore/project_source/gpu_class_proj/gpgpusim-benchmarks-master/bin/release/STO
Running md5sum using "md5sum /home/kishore/project_source/gpu_class_proj/gpgpusim-benchmarks-master/bin/release/STO "
Running cuobjdump using "$CUDA_INSTALL_PATH/bin/cuobjdump -ptx -elf -sass /home/kishore/project_source/gpu_class_proj/gpgpusim-benchmarks-master/bin/release/STO > _cuobjdump_complete_output_JUt51O"
Parsing file _cuobjdump_complete_output_JUt51O
######### cuobjdump parser ########
## Adding new section PTX
Adding ptx filename: _cuobjdump_1.ptx
Adding arch: sm_10
Adding identifier: main.cu
## Adding new section ELF
Adding arch: sm_10
Adding identifier: main.cu
## Adding new section ELF
Adding arch: sm_20
Adding identifier: main.cu
## Adding new section PTX
Adding ptx filename: _cuobjdump_2.ptx
Adding arch: sm_20
Adding identifier: main.cu
## Adding new section PTX
Adding ptx filename: _cuobjdump_3.ptx
Adding arch: sm_10
Adding identifier: storeGPU.cu
## Adding new section ELF
Adding arch: sm_10
Adding identifier: storeGPU.cu
## Adding new section ELF
Adding arch: sm_20
Adding identifier: storeGPU.cu
## Adding new section PTX
Adding ptx filename: _cuobjdump_4.ptx
Adding arch: sm_20
Adding identifier: storeGPU.cu
Done parsing!!!
GPGPU-Sim PTX: __cudaRegisterFatBinary, fat_cubin_handle = 2, filename=storeGPU.cu
GPGPU-Sim PTX: __cudaRegisterFunction _Z12sha1_overlapPhiiiiS_ : hostFun 0x0x407f90, fat_cubin_handle = 2
GPGPU-Sim PTX: allocating stack frame region for .param "__cudaretf__Z14macroRFunctioniPj" from 0x0 to 0x8
GPGPU-Sim PTX: allocating stack frame region for .param "__cudaparmf1__Z14macroRFunctioniPj" from 0x8 to 0xc
GPGPU-Sim PTX: allocating stack frame region for .param "__cudaparmf2__Z14macroRFunctioniPj" from 0xc to 0x14
GPGPU-Sim PTX: instruction assembly for function '_Z14macroRFunctioniPj'...   done.
GPGPU-Sim PTX: finding reconvergence points for '_Z14macroRFunctioniPj'...
GPGPU-Sim PTX: Finding dominators for '_Z14macroRFunctioniPj'...
GPGPU-Sim PTX: Finding immediate dominators for '_Z14macroRFunctioniPj'...
GPGPU-Sim PTX: Finding postdominators for '_Z14macroRFunctioniPj'...
GPGPU-Sim PTX: Finding immediate postdominators for '_Z14macroRFunctioniPj'...
GPGPU-Sim PTX: pre-decoding instructions for '_Z14macroRFunctioniPj'...
GPGPU-Sim PTX: reconvergence points for _Z14macroRFunctioniPj...
GPGPU-Sim PTX: ... end of reconvergence points for _Z14macroRFunctioniPj
GPGPU-Sim PTX: ... done pre-decoding instructions for '_Z14macroRFunctioniPj'.
GPGPU-Sim PTX: allocating shared region for "__cuda___cuda_local_var_36043_40_non_const_sharedMemory32" from 0x0 to 0x3f80 (shared memory space)
GPGPU-Sim PTX: instruction assembly for function '_Z3md5PhiiiS_'...   done.
GPGPU-Sim PTX: finding reconvergence points for '_Z3md5PhiiiS_'...
GPGPU-Sim PTX: Finding dominators for '_Z3md5PhiiiS_'...
GPGPU-Sim PTX: Finding immediate dominators for '_Z3md5PhiiiS_'...
GPGPU-Sim PTX: Finding postdominators for '_Z3md5PhiiiS_'...
GPGPU-Sim PTX: Finding immediate postdominators for '_Z3md5PhiiiS_'...
GPGPU-Sim PTX: pre-decoding instructions for '_Z3md5PhiiiS_'...
GPGPU-Sim PTX: reconvergence points for _Z3md5PhiiiS_...
GPGPU-Sim PTX:  1 (potential) branch divergence @  PC=0x190 (_2.ptx:127) @%p1 bra $Lt_1_4866;
GPGPU-Sim PTX:    immediate post dominator      @  PC=0x21f0 (_2.ptx:1283) exit;
GPGPU-Sim PTX:  2 (potential) branch divergence @  PC=0x198 (_2.ptx:128) bra.uni $LBB20__Z3md5PhiiiS_;
GPGPU-Sim PTX:    immediate post dominator      @  PC=0x21f0 (_2.ptx:1283) exit;
GPGPU-Sim PTX:  3 (potential) branch divergence @  PC=0x1f0 (_2.ptx:141) @%p3 bra $Lt_1_5634;
GPGPU-Sim PTX:    immediate post dominator      @  PC=0x290 (_2.ptx:167) shr.s32 %r23, %r15, 31;
GPGPU-Sim PTX:  4 (potential) branch divergence @  PC=0x200 (_2.ptx:143) @!%p2 bra $Lt_1_5378;
GPGPU-Sim PTX:    immediate post dominator      @  PC=0x290 (_2.ptx:167) shr.s32 %r23, %r15, 31;
GPGPU-Sim PTX:  5 (potential) branch divergence @  PC=0x278 (_2.ptx:161) @%p4 bra $Lt_1_6402;
GPGPU-Sim PTX:    immediate post dominator      @  PC=0x280 (_2.ptx:162) bra.uni $Lt_1_5378;
GPGPU-Sim PTX:  6 (potential) branch divergence @  PC=0x280 (_2.ptx:162) bra.uni $Lt_1_5378;
GPGPU-Sim PTX:    immediate post dominator      @  PC=0x290 (_2.ptx:167) shr.s32 %r23, %r15, 31;
GPGPU-Sim PTX:  7 (potential) branch divergence @  PC=0x2d0 (_2.ptx:175) @%p5 bra $Lt_1_8706;
GPGPU-Sim PTX:    immediate post dominator      @  PC=0x2198 (_2.ptx:1270) mul.lo.s32 %r234, %r5, 4;
GPGPU-Sim PTX:  8 (potential) branch divergence @  PC=0x4e8 (_2.ptx:257) @%p6 bra $Lt_1_7938;
GPGPU-Sim PTX:    immediate post dominator      @  PC=0x560 (_2.ptx:281) ld.shared.u8 %r69, [%rd20+0];
GPGPU-Sim PTX:  9 (potential) branch divergence @  PC=0x520 (_2.ptx:267) bra.uni $Lt_1_7682;
GPGPU-Sim PTX:    immediate post dominator      @  PC=0x560 (_2.ptx:281) ld.shared.u8 %r69, [%rd20+0];
GPGPU-Sim PTX: 10 (potential) branch divergence @  PC=0x2180 (_2.ptx:1264) @%p7 bra $Lt_1_7426;
GPGPU-Sim PTX:    immediate post dominator      @  PC=0x2188 (_2.ptx:1265) bra.uni $Lt_1_6914;
GPGPU-Sim PTX: 11 (potential) branch divergence @  PC=0x2188 (_2.ptx:1265) bra.uni $Lt_1_6914;
GPGPU-Sim PTX:    immediate post dominator      @  PC=0x2198 (_2.ptx:1270) mul.lo.s32 %r234, %r5, 4;
GPGPU-Sim PTX: ... end of reconvergence points for _Z3md5PhiiiS_
GPGPU-Sim PTX: ... done pre-decoding instructions for '_Z3md5PhiiiS_'.
GPGPU-Sim PTX: allocating shared region for "__cuda___cuda_local_var_36078_40_non_const_sharedMemory16320" from 0x0 to 0x3f80 (shared memory space)
GPGPU-Sim PTX: instruction assembly for function '_Z11md5_overlapPhiiiiS_'...   done.
GPGPU-Sim PTX: finding reconvergence points for '_Z11md5_overlapPhiiiiS_'...
GPGPU-Sim PTX: Finding dominators for '_Z11md5_overlapPhiiiiS_'...
GPGPU-Sim PTX: Finding immediate dominators for '_Z11md5_overlapPhiiiiS_'...
GPGPU-Sim PTX: Finding postdominators for '_Z11md5_overlapPhiiiiS_'...
GPGPU-Sim PTX: Finding immediate postdominators for '_Z11md5_overlapPhiiiiS_'...
GPGPU-Sim PTX: pre-decoding instructions for '_Z11md5_overlapPhiiiiS_'...
GPGPU-Sim PTX: reconvergence points for _Z11md5_overlapPhiiiiS_...
GPGPU-Sim PTX:  1 (potential) branch divergence @  PC=0x2230 (_2.ptx:1308) @%p1 bra $Lt_2_5634;
GPGPU-Sim PTX:    immediate post dominator      @  PC=0x43e8 (_2.ptx:2510) exit;
GPGPU-Sim PTX:  2 (potential) branch divergence @  PC=0x2238 (_2.ptx:1309) bra.uni $LBB23__Z11md5_overlapPhiiiiS_;
GPGPU-Sim PTX:    immediate post dominator      @  PC=0x43e8 (_2.ptx:2510) exit;
GPGPU-Sim PTX:  3 (potential) branch divergence @  PC=0x22b0 (_2.ptx:1326) @%p3 bra $Lt_2_9730;
GPGPU-Sim PTX:    immediate post dominator      @  PC=0x4390 (_2.ptx:2497) mul.lo.s32 %r260, %r5, 4;
GPGPU-Sim PTX:  4 (potential) branch divergence @  PC=0x2440 (_2.ptx:1378) @%p4 bra $Lt_2_7170;
GPGPU-Sim PTX:    immediate post dominator      @  PC=0x2768 (_2.ptx:1510) ld.shared.u8 %r95, [%rd15+0];
GPGPU-Sim PTX:  5 (potential) branch divergence @  PC=0x2488 (_2.ptx:1387) @%p5 bra $Lt_2_9986;
GPGPU-Sim PTX:    immediate post dominator      @  PC=0x2520 (_2.ptx:1411) mov.s32 %r62, 13;
GPGPU-Sim PTX:  6 (potential) branch divergence @  PC=0x2500 (_2.ptx:1405) @%p6 bra $Lt_2_7938;
GPGPU-Sim PTX:    immediate post dominator      @  PC=0x2508 (_2.ptx:1406) mov.s32 %r61, %r52;
GPGPU-Sim PTX:  7 (potential) branch divergence @  PC=0x2510 (_2.ptx:1407) bra.uni $Lt_2_7426;
GPGPU-Sim PTX:    immediate post dominator      @  PC=0x2520 (_2.ptx:1411) mov.s32 %r62, 13;
GPGPU-Sim PTX:  8 (potential) branch divergence @  PC=0x2540 (_2.ptx:1415) @%p7 bra $Lt_2_8450;
GPGPU-Sim PTX:    immediate post dominator      @  PC=0x25e0 (_2.ptx:1440) mov.u32 %r72, 128;
GPGPU-Sim PTX:  9 (potential) branch divergence @  PC=0x25d8 (_2.ptx:1437) @%p8 bra $Lt_2_8962;
GPGPU-Sim PTX:    immediate post dominator      @  PC=0x25e0 (_2.ptx:1440) mov.u32 %r72, 128;
GPGPU-Sim PTX: 10 (potential) branch divergence @  PC=0x2640 (_2.ptx:1454) bra.uni $Lt_2_6914;
GPGPU-Sim PTX:    immediate post dominator      @  PC=0x2768 (_2.ptx:1510) ld.shared.u8 %r95, [%rd15+0];
GPGPU-Sim PTX: 11 (potential) branch divergence @  PC=0x4378 (_2.ptx:2491) @%p9 bra $Lt_2_6658;
GPGPU-Sim PTX:    immediate post dominator      @  PC=0x4380 (_2.ptx:2492) bra.uni $Lt_2_6146;
GPGPU-Sim PTX: 12 (potential) branch divergence @  PC=0x4380 (_2.ptx:2492) bra.uni $Lt_2_6146;
GPGPU-Sim PTX:    immediate post dominator      @  PC=0x4390 (_2.ptx:2497) mul.lo.s32 %r260, %r5, 4;
GPGPU-Sim PTX: ... end of reconvergence points for _Z11md5_overlapPhiiiiS_
GPGPU-Sim PTX: ... done pre-decoding instructions for '_Z11md5_overlapPhiiiiS_'.
GPGPU-Sim PTX: allocating shared region for "__cuda___cuda_local_var_36930_40_non_const_sharedMemory32608" from 0x0 to 0x3f80 (shared memory space)
GPGPU-Sim PTX: instruction assembly for function '_Z4sha1PhiiiS_'...   done.
GPGPU-Sim PTX: finding reconvergence points for '_Z4sha1PhiiiS_'...
GPGPU-Sim PTX: Finding dominators for '_Z4sha1PhiiiS_'...
GPGPU-Sim PTX: Finding immediate dominators for '_Z4sha1PhiiiS_'...
GPGPU-Sim PTX: Finding postdominators for '_Z4sha1PhiiiS_'...
GPGPU-Sim PTX: Finding immediate postdominators for '_Z4sha1PhiiiS_'...
GPGPU-Sim PTX: pre-decoding instructions for '_Z4sha1PhiiiS_'...
GPGPU-Sim PTX: reconvergence points for _Z4sha1PhiiiS_...
GPGPU-Sim PTX:  1 (potential) branch divergence @  PC=0x4428 (_2.ptx:2534) @%p1 bra $Lt_3_4866;
GPGPU-Sim PTX:    immediate post dominator      @  PC=0x9018 (_2.ptx:5165) exit;
GPGPU-Sim PTX:  2 (potential) branch divergence @  PC=0x4430 (_2.ptx:2535) bra.uni $LBB20__Z4sha1PhiiiS_;
GPGPU-Sim PTX:    immediate post dominator      @  PC=0x9018 (_2.ptx:5165) exit;
GPGPU-Sim PTX:  3 (potential) branch divergence @  PC=0x4488 (_2.ptx:2548) @%p3 bra $Lt_3_5634;
GPGPU-Sim PTX:    immediate post dominator      @  PC=0x4528 (_2.ptx:2574) shr.u32 %r23, %r15, 6;
GPGPU-Sim PTX:  4 (potential) branch divergence @  PC=0x4498 (_2.ptx:2550) @!%p2 bra $Lt_3_5378;
GPGPU-Sim PTX:    immediate post dominator      @  PC=0x4528 (_2.ptx:2574) shr.u32 %r23, %r15, 6;
GPGPU-Sim PTX:  5 (potential) branch divergence @  PC=0x4510 (_2.ptx:2568) @%p4 bra $Lt_3_6402;
GPGPU-Sim PTX:    immediate post dominator      @  PC=0x4518 (_2.ptx:2569) bra.uni $Lt_3_5378;
GPGPU-Sim PTX:  6 (potential) branch divergence @  PC=0x4518 (_2.ptx:2569) bra.uni $Lt_3_5378;
GPGPU-Sim PTX:    immediate post dominator      @  PC=0x4528 (_2.ptx:2574) shr.u32 %r23, %r15, 6;
GPGPU-Sim PTX:  7 (potential) branch divergence @  PC=0x4548 (_2.ptx:2578) @%p5 bra $Lt_3_8706;
GPGPU-Sim PTX:    immediate post dominator      @  PC=0x8fc0 (_2.ptx:5152) mul.lo.s32 %r748, %r5, 4;
GPGPU-Sim PTX:  8 (potential) branch divergence @  PC=0x4730 (_2.ptx:2654) @%p6 bra $Lt_3_7938;
GPGPU-Sim PTX:    immediate post dominator      @  PC=0x4820 (_2.ptx:2693) ld.shared.u8 %r69, [%rd21+3];
GPGPU-Sim PTX:  9 (potential) branch divergence @  PC=0x47e0 (_2.ptx:2679) bra.uni $Lt_3_7682;
GPGPU-Sim PTX:    immediate post dominator      @  PC=0x4820 (_2.ptx:2693) ld.shared.u8 %r69, [%rd21+3];
GPGPU-Sim PTX: 10 (potential) branch divergence @  PC=0x8fa8 (_2.ptx:5146) @%p7 bra $Lt_3_7426;
GPGPU-Sim PTX:    immediate post dominator      @  PC=0x8fb0 (_2.ptx:5147) bra.uni $Lt_3_6914;
GPGPU-Sim PTX: 11 (potential) branch divergence @  PC=0x8fb0 (_2.ptx:5147) bra.uni $Lt_3_6914;
GPGPU-Sim PTX:    immediate post dominator      @  PC=0x8fc0 (_2.ptx:5152) mul.lo.s32 %r748, %r5, 4;
GPGPU-Sim PTX: ... end of reconvergence points for _Z4sha1PhiiiS_
GPGPU-Sim PTX: ... done pre-decoding instructions for '_Z4sha1PhiiiS_'.
GPGPU-Sim PTX: allocating shared region for "__cuda___cuda_local_var_36962_40_non_const_sharedMemory48896" from 0x0 to 0x3f80 (shared memory space)
GPGPU-Sim PTX: instruction assembly for function '_Z12sha1_overlapPhiiiiS_'...   done.
GPGPU-Sim PTX: finding reconvergence points for '_Z12sha1_overlapPhiiiiS_'...
GPGPU-Sim PTX: Finding dominators for '_Z12sha1_overlapPhiiiiS_'...
GPGPU-Sim PTX: Finding immediate dominators for '_Z12sha1_overlapPhiiiiS_'...
GPGPU-Sim PTX: Finding postdominators for '_Z12sha1_overlapPhiiiiS_'...
GPGPU-Sim PTX: Finding immediate postdominators for '_Z12sha1_overlapPhiiiiS_'...
GPGPU-Sim PTX: pre-decoding instructions for '_Z12sha1_overlapPhiiiiS_'...
GPGPU-Sim PTX: reconvergence points for _Z12sha1_overlapPhiiiiS_...
GPGPU-Sim PTX:  1 (potential) branch divergence @  PC=0x9058 (_2.ptx:5190) @%p1 bra $Lt_4_5634;
GPGPU-Sim PTX:    immediate post dominator      @  PC=0xde28 (_2.ptx:7884) exit;
GPGPU-Sim PTX:  2 (potential) branch divergence @  PC=0x9060 (_2.ptx:5191) bra.uni $LBB23__Z12sha1_overlapPhiiiiS_;
GPGPU-Sim PTX:    immediate post dominator      @  PC=0xde28 (_2.ptx:7884) exit;
GPGPU-Sim PTX:  3 (potential) branch divergence @  PC=0x90b8 (_2.ptx:5204) @%p3 bra $Lt_4_9730;
GPGPU-Sim PTX:    immediate post dominator      @  PC=0xddd0 (_2.ptx:7871) mul.lo.s32 %r783, %r5, 4;
GPGPU-Sim PTX:  4 (potential) branch divergence @  PC=0x9288 (_2.ptx:5264) @%p4 bra $Lt_4_7170;
GPGPU-Sim PTX:    immediate post dominator      @  PC=0x9628 (_2.ptx:5411) ld.shared.u8 %r101, [%rd15+3];
GPGPU-Sim PTX:  5 (potential) branch divergence @  PC=0x92d0 (_2.ptx:5273) @%p5 bra $Lt_4_9986;
GPGPU-Sim PTX:    immediate post dominator      @  PC=0x9368 (_2.ptx:5297) mov.s32 %r59, 13;
GPGPU-Sim PTX:  6 (potential) branch divergence @  PC=0x9348 (_2.ptx:5291) @%p6 bra $Lt_4_7938;
GPGPU-Sim PTX:    immediate post dominator      @  PC=0x9350 (_2.ptx:5292) mov.s32 %r58, %r49;
GPGPU-Sim PTX:  7 (potential) branch divergence @  PC=0x9358 (_2.ptx:5293) bra.uni $Lt_4_7426;
GPGPU-Sim PTX:    immediate post dominator      @  PC=0x9368 (_2.ptx:5297) mov.s32 %r59, 13;
GPGPU-Sim PTX:  8 (potential) branch divergence @  PC=0x9388 (_2.ptx:5301) @%p7 bra $Lt_4_8450;
GPGPU-Sim PTX:    immediate post dominator      @  PC=0x9428 (_2.ptx:5326) mov.u32 %r69, 128;
GPGPU-Sim PTX:  9 (potential) branch divergence @  PC=0x9420 (_2.ptx:5323) @%p8 bra $Lt_4_8962;
GPGPU-Sim PTX:    immediate post dominator      @  PC=0x9428 (_2.ptx:5326) mov.u32 %r69, 128;
GPGPU-Sim PTX: 10 (potential) branch divergence @  PC=0x9500 (_2.ptx:5355) bra.uni $Lt_4_6914;
GPGPU-Sim PTX:    immediate post dominator      @  PC=0x9628 (_2.ptx:5411) ld.shared.u8 %r101, [%rd15+3];
GPGPU-Sim PTX: 11 (potential) branch divergence @  PC=0xddb8 (_2.ptx:7865) @%p9 bra $Lt_4_6658;
GPGPU-Sim PTX:    immediate post dominator      @  PC=0xddc0 (_2.ptx:7866) bra.uni $Lt_4_6146;
GPGPU-Sim PTX: 12 (potential) branch divergence @  PC=0xddc0 (_2.ptx:7866) bra.uni $Lt_4_6146;
GPGPU-Sim PTX:    immediate post dominator      @  PC=0xddd0 (_2.ptx:7871) mul.lo.s32 %r783, %r5, 4;
GPGPU-Sim PTX: ... end of reconvergence points for _Z12sha1_overlapPhiiiiS_
GPGPU-Sim PTX: ... done pre-decoding instructions for '_Z12sha1_overlapPhiiiiS_'.
GPGPU-Sim PTX: allocating global region for "md5_padding" from 0x100 to 0x140 (global memory space)
GPGPU-Sim PTX: allocating global region for "sha1_padding" from 0x140 to 0x180 (global memory space)
GPGPU-Sim PTX: finished parsing EMBEDDED .ptx file _2.ptx
Adding _cuobjdump_4.ptx with cubin handle 2
GPGPU-Sim PTX: extracting embedded .ptx to temporary file "_ptx_ZrSx3p"
Running: cat _ptx_ZrSx3p | sed 's/.version 1.5/.version 1.4/' | sed 's/, texmode_independent//' | sed 's/\(\.extern \.const\[1\] .b8 \w\+\)\[\]/\1\[1\]/' | sed 's/const\[.\]/const\[0\]/g' > _ptx2_ZcX440
GPGPU-Sim PTX: generating ptxinfo using "$CUDA_INSTALL_PATH/bin/ptxas --gpu-name=sm_20 -v _ptx2_ZcX440 --output-file  /dev/null 2> _ptx_ZrSx3pinfo"
GPGPU-Sim PTX: Kernel '_Z12sha1_overlapPhiiiiS_' : regs=47, lmem=0, smem=16256, cmem=80
GPGPU-Sim PTX: Kernel '_Z4sha1PhiiiS_' : regs=45, lmem=0, smem=16256, cmem=80
GPGPU-Sim PTX: Kernel '_Z11md5_overlapPhiiiiS_' : regs=42, lmem=0, smem=16256, cmem=80
GPGPU-Sim PTX: Kernel '_Z3md5PhiiiS_' : regs=42, lmem=0, smem=16256, cmem=80
GPGPU-Sim PTX: removing ptxinfo using "rm -f _ptx_ZrSx3p _ptx2_ZcX440 _ptx_ZrSx3pinfo"
GPGPU-Sim PTX: loading globals with explicit initializers... 
GPGPU-Sim PTX:     initializing 'md5_padding' ...  wrote 64 bytes
GPGPU-Sim PTX:     initializing 'sha1_padding' ...  wrote 64 bytes
GPGPU-Sim PTX: finished loading globals (128 bytes total).
GPGPU-Sim PTX: loading constants with explicit initializers...  done.
GPGPU-Sim PTX: __cudaRegisterFunction _Z4sha1PhiiiS_ : hostFun 0x0x408050, fat_cubin_handle = 2
GPGPU-Sim PTX: __cudaRegisterFunction _Z11md5_overlapPhiiiiS_ : hostFun 0x0x408140, fat_cubin_handle = 2
GPGPU-Sim PTX: __cudaRegisterFunction _Z3md5PhiiiS_ : hostFun 0x0x408200, fat_cubin_handle = 2
GPGPU-Sim PTX: __cudaRegisterVar: hostVar = 0x6ad440; deviceAddress = md5_padding; deviceName = md5_padding
GPGPU-Sim PTX: __cudaRegisterVar: Registering const memory space of 64 bytes
GPGPU-Sim PTX registering global md5_padding hostVar to name mapping
GPGPU-Sim PTX: __cudaRegisterVar: hostVar = 0x6ad480; deviceAddress = sha1_padding; deviceName = sha1_padding
GPGPU-Sim PTX: __cudaRegisterVar: Registering const memory space of 64 bytes
GPGPU-Sim PTX registering global sha1_padding hostVar to name mapping
Shared Memory Enabled
Pinned Memory Enabled
Reduced Hash Size Enabled
Running SHA1 Overlap Test..
SHA1 Overlap Test


== GPU Execution Context ==
Threads       : 128
Blocks        : 384
Total Threads : 49152
Total size    : 196656
Chunk Size    : 52
Padding       : 0


GPGPU-Sim PTX: cudaLaunch for 0x0x407f90 (mode=performance simulation) on stream 0
GPGPU-Sim PTX: pushing kernel '_Z12sha1_overlapPhiiiiS_' to stream 0, gridDim= (384,1,1) blockDim = (128,1,1) 
kernel '_Z12sha1_overlapPhiiiiS_' transfer to GPU hardware scheduler
GPGPU-Sim uArch: Shader 1 bind to kernel 1 '_Z12sha1_overlapPhiiiiS_'
GPGPU-Sim uArch: CTA/core = 3, limited by: shmem
GPGPU-Sim uArch: core:  1, cta: 0 initialized @(1,0)
GPGPU-Sim uArch: Shader 2 bind to kernel 1 '_Z12sha1_overlapPhiiiiS_'
GPGPU-Sim uArch: core:  2, cta: 0 initialized @(1,0)
GPGPU-Sim uArch: Shader 3 bind to kernel 1 '_Z12sha1_overlapPhiiiiS_'
GPGPU-Sim uArch: core:  3, cta: 0 initialized @(1,0)
GPGPU-Sim uArch: Shader 4 bind to kernel 1 '_Z12sha1_overlapPhiiiiS_'
GPGPU-Sim uArch: core:  4, cta: 0 initialized @(1,0)
GPGPU-Sim uArch: Shader 5 bind to kernel 1 '_Z12sha1_overlapPhiiiiS_'
GPGPU-Sim uArch: core:  5, cta: 0 initialized @(1,0)
GPGPU-Sim uArch: Shader 6 bind to kernel 1 '_Z12sha1_overlapPhiiiiS_'
GPGPU-Sim uArch: core:  6, cta: 0 initialized @(1,0)
GPGPU-Sim uArch: Shader 7 bind to kernel 1 '_Z12sha1_overlapPhiiiiS_'
GPGPU-Sim uArch: core:  7, cta: 0 initialized @(1,0)
GPGPU-Sim uArch: Shader 8 bind to kernel 1 '_Z12sha1_overlapPhiiiiS_'
GPGPU-Sim uArch: core:  8, cta: 0 initialized @(1,0)
GPGPU-Sim uArch: Shader 9 bind to kernel 1 '_Z12sha1_overlapPhiiiiS_'
GPGPU-Sim uArch: core:  9, cta: 0 initialized @(1,0)
GPGPU-Sim uArch: Shader 10 bind to kernel 1 '_Z12sha1_overlapPhiiiiS_'
GPGPU-Sim uArch: core: 10, cta: 0 initialized @(1,0)
GPGPU-Sim uArch: Shader 11 bind to kernel 1 '_Z12sha1_overlapPhiiiiS_'
GPGPU-Sim uArch: core: 11, cta: 0 initialized @(1,0)
GPGPU-Sim uArch: Shader 12 bind to kernel 1 '_Z12sha1_overlapPhiiiiS_'
GPGPU-Sim uArch: core: 12, cta: 0 initialized @(1,0)
GPGPU-Sim uArch: Shader 13 bind to kernel 1 '_Z12sha1_overlapPhiiiiS_'
GPGPU-Sim uArch: core: 13, cta: 0 initialized @(1,0)
GPGPU-Sim uArch: Shader 14 bind to kernel 1 '_Z12sha1_overlapPhiiiiS_'
GPGPU-Sim uArch: core: 14, cta: 0 initialized @(1,0)
GPGPU-Sim uArch: Shader 0 bind to kernel 1 '_Z12sha1_overlapPhiiiiS_'
GPGPU-Sim uArch: core:  0, cta: 0 initialized @(1,0)
GPGPU-Sim uArch: core:  1, cta: 1 initialized @(2,0)
GPGPU-Sim uArch: core:  2, cta: 1 initialized @(2,0)
GPGPU-Sim uArch: core:  3, cta: 1 initialized @(2,0)
GPGPU-Sim uArch: core:  4, cta: 1 initialized @(2,0)
GPGPU-Sim uArch: core:  5, cta: 1 initialized @(2,0)
GPGPU-Sim uArch: core:  6, cta: 1 initialized @(2,0)
GPGPU-Sim uArch: core:  7, cta: 1 initialized @(2,0)
GPGPU-Sim uArch: core:  8, cta: 1 initialized @(2,0)
GPGPU-Sim uArch: core:  9, cta: 1 initialized @(2,0)
GPGPU-Sim uArch: core: 10, cta: 1 initialized @(2,0)
GPGPU-Sim uArch: core: 11, cta: 1 initialized @(2,0)
GPGPU-Sim uArch: core: 12, cta: 1 initialized @(2,0)
GPGPU-Sim uArch: core: 13, cta: 1 initialized @(2,0)
GPGPU-Sim uArch: core: 14, cta: 1 initialized @(2,0)
GPGPU-Sim uArch: core:  0, cta: 1 initialized @(2,0)
GPGPU-Sim uArch: core:  1, cta: 2 initialized @(3,0)
GPGPU-Sim uArch: core:  2, cta: 2 initialized @(3,0)
GPGPU-Sim uArch: core:  3, cta: 2 initialized @(3,0)
GPGPU-Sim uArch: core:  4, cta: 2 initialized @(3,0)
GPGPU-Sim uArch: core:  5, cta: 2 initialized @(3,0)
GPGPU-Sim uArch: core:  6, cta: 2 initialized @(3,0)
GPGPU-Sim uArch: core:  7, cta: 2 initialized @(3,0)
GPGPU-Sim uArch: core:  8, cta: 2 initialized @(3,0)
GPGPU-Sim uArch: core:  9, cta: 2 initialized @(3,0)
GPGPU-Sim uArch: core: 10, cta: 2 initialized @(3,0)
GPGPU-Sim uArch: core: 11, cta: 2 initialized @(3,0)
GPGPU-Sim uArch: core: 12, cta: 2 initialized @(3,0)
GPGPU-Sim uArch: core: 13, cta: 2 initialized @(3,0)
GPGPU-Sim uArch: core: 14, cta: 2 initialized @(3,0)
GPGPU-Sim uArch: core:  0, cta: 2 initialized @(3,0)
GPGPU-Sim uArch: cycles simulated: 500  inst.: 28800 (ipc=57.6) sim_rate=14400 (inst/sec) elapsed = 0:0:00:02 / Wed May 13 10:33:55 2015
GPGPU-Sim PTX: 100000 instructions simulated : ctaid=(33,0,0) tid=(127,0,0)
GPGPU-Sim uArch: cycles simulated: 1000  inst.: 102112 (ipc=102.1) sim_rate=34037 (inst/sec) elapsed = 0:0:00:03 / Wed May 13 10:33:56 2015
GPGPU-Sim PTX: 200000 instructions simulated : ctaid=(38,0,0) tid=(31,0,0)
GPGPU-Sim uArch: cycles simulated: 1500  inst.: 233408 (ipc=155.6) sim_rate=58352 (inst/sec) elapsed = 0:0:00:04 / Wed May 13 10:33:57 2015
GPGPU-Sim PTX: 300000 instructions simulated : ctaid=(13,0,0) tid=(127,0,0)
GPGPU-Sim uArch: cycles simulated: 2000  inst.: 339744 (ipc=169.9) sim_rate=67948 (inst/sec) elapsed = 0:0:00:05 / Wed May 13 10:33:58 2015
GPGPU-Sim PTX: 400000 instructions simulated : ctaid=(18,0,0) tid=(63,0,0)
GPGPU-Sim uArch: cycles simulated: 2500  inst.: 432000 (ipc=172.8) sim_rate=72000 (inst/sec) elapsed = 0:0:00:06 / Wed May 13 10:33:59 2015
GPGPU-Sim uArch: cycles simulated: 3000  inst.: 484608 (ipc=161.5) sim_rate=69229 (inst/sec) elapsed = 0:0:00:07 / Wed May 13 10:34:00 2015
GPGPU-Sim PTX: 500000 instructions simulated : ctaid=(3,0,0) tid=(63,0,0)
GPGPU-Sim PTX: 600000 instructions simulated : ctaid=(28,0,0) tid=(63,0,0)
GPGPU-Sim uArch: cycles simulated: 3500  inst.: 579840 (ipc=165.7) sim_rate=72480 (inst/sec) elapsed = 0:0:00:08 / Wed May 13 10:34:01 2015
GPGPU-Sim PTX: 700000 instructions simulated : ctaid=(0,0,0) tid=(95,0,0)
GPGPU-Sim uArch: cycles simulated: 4000  inst.: 686496 (ipc=171.6) sim_rate=68649 (inst/sec) elapsed = 0:0:00:10 / Wed May 13 10:34:03 2015
GPGPU-Sim PTX: 800000 instructions simulated : ctaid=(20,0,0) tid=(95,0,0)
GPGPU-Sim PTX: 900000 instructions simulated : ctaid=(10,0,0) tid=(95,0,0)
GPGPU-Sim uArch: cycles simulated: 4500  inst.: 927040 (ipc=206.0) sim_rate=84276 (inst/sec) elapsed = 0:0:00:11 / Wed May 13 10:34:04 2015
GPGPU-Sim PTX: 1000000 instructions simulated : ctaid=(0,0,0) tid=(95,0,0)
GPGPU-Sim PTX: 1100000 instructions simulated : ctaid=(20,0,0) tid=(63,0,0)
GPGPU-Sim uArch: cycles simulated: 5000  inst.: 1157056 (ipc=231.4) sim_rate=89004 (inst/sec) elapsed = 0:0:00:13 / Wed May 13 10:34:06 2015
GPGPU-Sim PTX: 1200000 instructions simulated : ctaid=(38,0,0) tid=(127,0,0)
GPGPU-Sim PTX: 1300000 instructions simulated : ctaid=(28,0,0) tid=(127,0,0)
GPGPU-Sim uArch: cycles simulated: 5500  inst.: 1350304 (ipc=245.5) sim_rate=90020 (inst/sec) elapsed = 0:0:00:15 / Wed May 13 10:34:08 2015
GPGPU-Sim PTX: 1400000 instructions simulated : ctaid=(40,0,0) tid=(95,0,0)
GPGPU-Sim PTX: 1500000 instructions simulated : ctaid=(42,0,0) tid=(31,0,0)
GPGPU-Sim uArch: cycles simulated: 6000  inst.: 1527136 (ipc=254.5) sim_rate=89831 (inst/sec) elapsed = 0:0:00:17 / Wed May 13 10:34:10 2015
GPGPU-Sim PTX: 1600000 instructions simulated : ctaid=(37,0,0) tid=(95,0,0)
GPGPU-Sim uArch: cycles simulated: 6500  inst.: 1630080 (ipc=250.8) sim_rate=90560 (inst/sec) elapsed = 0:0:00:18 / Wed May 13 10:34:11 2015
GPGPU-Sim PTX: 1700000 instructions simulated : ctaid=(23,0,0) tid=(31,0,0)
GPGPU-Sim uArch: cycles simulated: 7000  inst.: 1725568 (ipc=246.5) sim_rate=90819 (inst/sec) elapsed = 0:0:00:19 / Wed May 13 10:34:12 2015
GPGPU-Sim PTX: 1800000 instructions simulated : ctaid=(26,0,0) tid=(95,0,0)
GPGPU-Sim uArch: cycles simulated: 7500  inst.: 1850720 (ipc=246.8) sim_rate=92536 (inst/sec) elapsed = 0:0:00:20 / Wed May 13 10:34:13 2015
GPGPU-Sim PTX: 1900000 instructions simulated : ctaid=(4,0,0) tid=(95,0,0)
GPGPU-Sim PTX: 2000000 instructions simulated : ctaid=(27,0,0) tid=(63,0,0)
GPGPU-Sim uArch: cycles simulated: 8000  inst.: 1978112 (ipc=247.3) sim_rate=89914 (inst/sec) elapsed = 0:0:00:22 / Wed May 13 10:34:15 2015
GPGPU-Sim PTX: 2100000 instructions simulated : ctaid=(37,0,0) tid=(127,0,0)
GPGPU-Sim uArch: cycles simulated: 8500  inst.: 2087744 (ipc=245.6) sim_rate=90771 (inst/sec) elapsed = 0:0:00:23 / Wed May 13 10:34:16 2015
GPGPU-Sim PTX: 2200000 instructions simulated : ctaid=(17,0,0) tid=(127,0,0)
GPGPU-Sim uArch: cycles simulated: 9000  inst.: 2183040 (ipc=242.6) sim_rate=90960 (inst/sec) elapsed = 0:0:00:24 / Wed May 13 10:34:17 2015
GPGPU-Sim PTX: 2300000 instructions simulated : ctaid=(31,0,0) tid=(63,0,0)
GPGPU-Sim uArch: cycles simulated: 9500  inst.: 2281312 (ipc=240.1) sim_rate=91252 (inst/sec) elapsed = 0:0:00:25 / Wed May 13 10:34:18 2015
GPGPU-Sim PTX: 2400000 instructions simulated : ctaid=(10,0,0) tid=(95,0,0)
GPGPU-Sim uArch: cycles simulated: 10000  inst.: 2417312 (ipc=241.7) sim_rate=89530 (inst/sec) elapsed = 0:0:00:27 / Wed May 13 10:34:20 2015
GPGPU-Sim PTX: 2500000 instructions simulated : ctaid=(10,0,0) tid=(95,0,0)
GPGPU-Sim uArch: cycles simulated: 10500  inst.: 2546880 (ipc=242.6) sim_rate=90960 (inst/sec) elapsed = 0:0:00:28 / Wed May 13 10:34:21 2015
GPGPU-Sim PTX: 2600000 instructions simulated : ctaid=(23,0,0) tid=(95,0,0)
GPGPU-Sim uArch: cycles simulated: 11000  inst.: 2643840 (ipc=240.3) sim_rate=91166 (inst/sec) elapsed = 0:0:00:29 / Wed May 13 10:34:22 2015
GPGPU-Sim PTX: 2700000 instructions simulated : ctaid=(28,0,0) tid=(31,0,0)
GPGPU-Sim uArch: cycles simulated: 11500  inst.: 2753824 (ipc=239.5) sim_rate=88833 (inst/sec) elapsed = 0:0:00:31 / Wed May 13 10:34:24 2015
GPGPU-Sim PTX: 2800000 instructions simulated : ctaid=(18,0,0) tid=(63,0,0)
GPGPU-Sim PTX: 2900000 instructions simulated : ctaid=(23,0,0) tid=(63,0,0)
GPGPU-Sim uArch: cycles simulated: 12000  inst.: 2895200 (ipc=241.3) sim_rate=90475 (inst/sec) elapsed = 0:0:00:32 / Wed May 13 10:34:25 2015
GPGPU-Sim PTX: 3000000 instructions simulated : ctaid=(36,0,0) tid=(63,0,0)
GPGPU-Sim uArch: cycles simulated: 12500  inst.: 3011776 (ipc=240.9) sim_rate=91265 (inst/sec) elapsed = 0:0:00:33 / Wed May 13 10:34:26 2015
GPGPU-Sim PTX: 3100000 instructions simulated : ctaid=(13,0,0) tid=(95,0,0)
GPGPU-Sim uArch: cycles simulated: 13000  inst.: 3104800 (ipc=238.8) sim_rate=91317 (inst/sec) elapsed = 0:0:00:34 / Wed May 13 10:34:27 2015
GPGPU-Sim PTX: 3200000 instructions simulated : ctaid=(19,0,0) tid=(127,0,0)
GPGPU-Sim uArch: cycles simulated: 13500  inst.: 3229632 (ipc=239.2) sim_rate=89712 (inst/sec) elapsed = 0:0:00:36 / Wed May 13 10:34:29 2015
GPGPU-Sim PTX: 3300000 instructions simulated : ctaid=(0,0,0) tid=(127,0,0)
GPGPU-Sim uArch: cycles simulated: 14000  inst.: 3366176 (ipc=240.4) sim_rate=90977 (inst/sec) elapsed = 0:0:00:37 / Wed May 13 10:34:30 2015
GPGPU-Sim PTX: 3400000 instructions simulated : ctaid=(28,0,0) tid=(127,0,0)
GPGPU-Sim uArch: cycles simulated: 14500  inst.: 3473280 (ipc=239.5) sim_rate=91402 (inst/sec) elapsed = 0:0:00:38 / Wed May 13 10:34:31 2015
GPGPU-Sim PTX: 3500000 instructions simulated : ctaid=(29,0,0) tid=(95,0,0)
GPGPU-Sim uArch: cycles simulated: 15000  inst.: 3569248 (ipc=237.9) sim_rate=89231 (inst/sec) elapsed = 0:0:00:40 / Wed May 13 10:34:33 2015
GPGPU-Sim PTX: 3600000 instructions simulated : ctaid=(21,0,0) tid=(95,0,0)
GPGPU-Sim PTX: 3700000 instructions simulated : ctaid=(31,0,0) tid=(63,0,0)
GPGPU-Sim uArch: cycles simulated: 15500  inst.: 3705824 (ipc=239.1) sim_rate=90385 (inst/sec) elapsed = 0:0:00:41 / Wed May 13 10:34:34 2015
GPGPU-Sim PTX: 3800000 instructions simulated : ctaid=(38,0,0) tid=(127,0,0)
GPGPU-Sim uArch: cycles simulated: 16000  inst.: 3834688 (ipc=239.7) sim_rate=91302 (inst/sec) elapsed = 0:0:00:42 / Wed May 13 10:34:35 2015
GPGPU-Sim PTX: 3900000 instructions simulated : ctaid=(43,0,0) tid=(63,0,0)
GPGPU-Sim uArch: cycles simulated: 16500  inst.: 3934080 (ipc=238.4) sim_rate=91490 (inst/sec) elapsed = 0:0:00:43 / Wed May 13 10:34:36 2015
GPGPU-Sim PTX: 4000000 instructions simulated : ctaid=(33,0,0) tid=(95,0,0)
GPGPU-Sim uArch: cycles simulated: 17000  inst.: 4037152 (ipc=237.5) sim_rate=91753 (inst/sec) elapsed = 0:0:00:44 / Wed May 13 10:34:37 2015
GPGPU-Sim PTX: 4100000 instructions simulated : ctaid=(38,0,0) tid=(31,0,0)
GPGPU-Sim PTX: 4200000 instructions simulated : ctaid=(14,0,0) tid=(127,0,0)
GPGPU-Sim uArch: cycles simulated: 17500  inst.: 4180000 (ipc=238.9) sim_rate=90869 (inst/sec) elapsed = 0:0:00:46 / Wed May 13 10:34:39 2015
GPGPU-Sim PTX: 4300000 instructions simulated : ctaid=(7,0,0) tid=(95,0,0)
GPGPU-Sim uArch: cycles simulated: 18000  inst.: 4300416 (ipc=238.9) sim_rate=91498 (inst/sec) elapsed = 0:0:00:47 / Wed May 13 10:34:40 2015
GPGPU-Sim PTX: 4400000 instructions simulated : ctaid=(44,0,0) tid=(127,0,0)
GPGPU-Sim uArch: cycles simulated: 18500  inst.: 4394880 (ipc=237.6) sim_rate=91560 (inst/sec) elapsed = 0:0:00:48 / Wed May 13 10:34:41 2015
GPGPU-Sim PTX: 4500000 instructions simulated : ctaid=(34,0,0) tid=(127,0,0)
GPGPU-Sim uArch: cycles simulated: 19000  inst.: 4510496 (ipc=237.4) sim_rate=90209 (inst/sec) elapsed = 0:0:00:50 / Wed May 13 10:34:43 2015
GPGPU-Sim PTX: 4600000 instructions simulated : ctaid=(23,0,0) tid=(127,0,0)
GPGPU-Sim uArch: cycles simulated: 19500  inst.: 4648736 (ipc=238.4) sim_rate=91151 (inst/sec) elapsed = 0:0:00:51 / Wed May 13 10:34:44 2015
GPGPU-Sim PTX: 4700000 instructions simulated : ctaid=(5,0,0) tid=(31,0,0)
GPGPU-Sim uArch: cycles simulated: 20000  inst.: 4762560 (ipc=238.1) sim_rate=91587 (inst/sec) elapsed = 0:0:00:52 / Wed May 13 10:34:45 2015
GPGPU-Sim PTX: 4800000 instructions simulated : ctaid=(40,0,0) tid=(31,0,0)
GPGPU-Sim uArch: cycles simulated: 20500  inst.: 4855808 (ipc=236.9) sim_rate=91619 (inst/sec) elapsed = 0:0:00:53 / Wed May 13 10:34:46 2015
GPGPU-Sim PTX: 4900000 instructions simulated : ctaid=(3,0,0) tid=(95,0,0)
GPGPU-Sim PTX: 5000000 instructions simulated : ctaid=(23,0,0) tid=(31,0,0)
GPGPU-Sim uArch: cycles simulated: 21000  inst.: 4980512 (ipc=237.2) sim_rate=90554 (inst/sec) elapsed = 0:0:00:55 / Wed May 13 10:34:48 2015
GPGPU-Sim PTX: 5100000 instructions simulated : ctaid=(28,0,0) tid=(63,0,0)
GPGPU-Sim uArch: cycles simulated: 21500  inst.: 5117472 (ipc=238.0) sim_rate=91383 (inst/sec) elapsed = 0:0:00:56 / Wed May 13 10:34:49 2015
GPGPU-Sim PTX: 5200000 instructions simulated : ctaid=(33,0,0) tid=(31,0,0)
GPGPU-Sim uArch: cycles simulated: 22000  inst.: 5224128 (ipc=237.5) sim_rate=91651 (inst/sec) elapsed = 0:0:00:57 / Wed May 13 10:34:50 2015
GPGPU-Sim PTX: 5300000 instructions simulated : ctaid=(24,0,0) tid=(63,0,0)
GPGPU-Sim uArch: cycles simulated: 22500  inst.: 5318560 (ipc=236.4) sim_rate=91699 (inst/sec) elapsed = 0:0:00:58 / Wed May 13 10:34:51 2015
GPGPU-Sim PTX: 5400000 instructions simulated : ctaid=(10,0,0) tid=(63,0,0)
GPGPU-Sim uArch: cycles simulated: 23000  inst.: 5448960 (ipc=236.9) sim_rate=90816 (inst/sec) elapsed = 0:0:01:00 / Wed May 13 10:34:53 2015
GPGPU-Sim PTX: 5500000 instructions simulated : ctaid=(19,0,0) tid=(127,0,0)
GPGPU-Sim PTX: 5600000 instructions simulated : ctaid=(7,0,0) tid=(127,0,0)
GPGPU-Sim uArch: cycles simulated: 23500  inst.: 5581568 (ipc=237.5) sim_rate=91501 (inst/sec) elapsed = 0:0:01:01 / Wed May 13 10:34:54 2015
GPGPU-Sim PTX: 5700000 instructions simulated : ctaid=(25,0,0) tid=(127,0,0)
GPGPU-Sim uArch: cycles simulated: 24000  inst.: 5685120 (ipc=236.9) sim_rate=91695 (inst/sec) elapsed = 0:0:01:02 / Wed May 13 10:34:55 2015
GPGPU-Sim PTX: 5800000 instructions simulated : ctaid=(41,0,0) tid=(127,0,0)
GPGPU-Sim uArch: cycles simulated: 24500  inst.: 5781312 (ipc=236.0) sim_rate=90333 (inst/sec) elapsed = 0:0:01:04 / Wed May 13 10:34:57 2015
GPGPU-Sim PTX: 5900000 instructions simulated : ctaid=(44,0,0) tid=(95,0,0)
GPGPU-Sim uArch: cycles simulated: 25000  inst.: 5917888 (ipc=236.7) sim_rate=91044 (inst/sec) elapsed = 0:0:01:05 / Wed May 13 10:34:58 2015
GPGPU-Sim PTX: 6000000 instructions simulated : ctaid=(40,0,0) tid=(95,0,0)
GPGPU-Sim uArch: cycles simulated: 25500  inst.: 6046720 (ipc=237.1) sim_rate=91616 (inst/sec) elapsed = 0:0:01:06 / Wed May 13 10:34:59 2015
GPGPU-Sim PTX: 6100000 instructions simulated : ctaid=(18,0,0) tid=(31,0,0)
GPGPU-Sim uArch: cycles simulated: 26000  inst.: 6145920 (ipc=236.4) sim_rate=91730 (inst/sec) elapsed = 0:0:01:07 / Wed May 13 10:35:00 2015
GPGPU-Sim PTX: 6200000 instructions simulated : ctaid=(23,0,0) tid=(95,0,0)
GPGPU-Sim uArch: cycles simulated: 26500  inst.: 6254304 (ipc=236.0) sim_rate=90642 (inst/sec) elapsed = 0:0:01:09 / Wed May 13 10:35:02 2015
GPGPU-Sim PTX: 6300000 instructions simulated : ctaid=(43,0,0) tid=(95,0,0)
GPGPU-Sim PTX: 6400000 instructions simulated : ctaid=(18,0,0) tid=(31,0,0)
GPGPU-Sim uArch: cycles simulated: 27000  inst.: 6395616 (ipc=236.9) sim_rate=91365 (inst/sec) elapsed = 0:0:01:10 / Wed May 13 10:35:03 2015
GPGPU-Sim PTX: 6500000 instructions simulated : ctaid=(26,0,0) tid=(63,0,0)
GPGPU-Sim uArch: cycles simulated: 27500  inst.: 6513568 (ipc=236.9) sim_rate=91740 (inst/sec) elapsed = 0:0:01:11 / Wed May 13 10:35:04 2015
GPGPU-Sim PTX: 6600000 instructions simulated : ctaid=(8,0,0) tid=(31,0,0)
GPGPU-Sim uArch: cycles simulated: 28000  inst.: 6606848 (ipc=236.0) sim_rate=91761 (inst/sec) elapsed = 0:0:01:12 / Wed May 13 10:35:05 2015
GPGPU-Sim PTX: 6700000 instructions simulated : ctaid=(35,0,0) tid=(127,0,0)
GPGPU-Sim uArch: cycles simulated: 28500  inst.: 6734304 (ipc=236.3) sim_rate=92250 (inst/sec) elapsed = 0:0:01:13 / Wed May 13 10:35:06 2015
GPGPU-Sim PTX: 6800000 instructions simulated : ctaid=(18,0,0) tid=(127,0,0)
GPGPU-Sim uArch: cycles simulated: 29000  inst.: 6868704 (ipc=236.9) sim_rate=91582 (inst/sec) elapsed = 0:0:01:15 / Wed May 13 10:35:08 2015
GPGPU-Sim PTX: 6900000 instructions simulated : ctaid=(40,0,0) tid=(127,0,0)
GPGPU-Sim uArch: cycles simulated: 29500  inst.: 6975360 (ipc=236.5) sim_rate=91781 (inst/sec) elapsed = 0:0:01:16 / Wed May 13 10:35:09 2015
GPGPU-Sim PTX: 7000000 instructions simulated : ctaid=(1,0,0) tid=(31,0,0)
GPGPU-Sim uArch: cycles simulated: 30000  inst.: 7070656 (ipc=235.7) sim_rate=91826 (inst/sec) elapsed = 0:0:01:17 / Wed May 13 10:35:10 2015
GPGPU-Sim PTX: 7100000 instructions simulated : ctaid=(33,0,0) tid=(31,0,0)
GPGPU-Sim PTX: 7200000 instructions simulated : ctaid=(35,0,0) tid=(95,0,0)
GPGPU-Sim uArch: cycles simulated: 30500  inst.: 7202304 (ipc=236.1) sim_rate=92337 (inst/sec) elapsed = 0:0:01:18 / Wed May 13 10:35:11 2015
GPGPU-Sim PTX: 7300000 instructions simulated : ctaid=(3,0,0) tid=(31,0,0)
GPGPU-Sim uArch: cycles simulated: 31000  inst.: 7335456 (ipc=236.6) sim_rate=91693 (inst/sec) elapsed = 0:0:01:20 / Wed May 13 10:35:13 2015
GPGPU-Sim PTX: 7400000 instructions simulated : ctaid=(23,0,0) tid=(95,0,0)
GPGPU-Sim uArch: cycles simulated: 31500  inst.: 7436160 (ipc=236.1) sim_rate=91804 (inst/sec) elapsed = 0:0:01:21 / Wed May 13 10:35:14 2015
GPGPU-Sim PTX: 7500000 instructions simulated : ctaid=(28,0,0) tid=(63,0,0)
GPGPU-Sim uArch: cycles simulated: 32000  inst.: 7538176 (ipc=235.6) sim_rate=91928 (inst/sec) elapsed = 0:0:01:22 / Wed May 13 10:35:15 2015
GPGPU-Sim PTX: 7600000 instructions simulated : ctaid=(33,0,0) tid=(127,0,0)
GPGPU-Sim PTX: 7700000 instructions simulated : ctaid=(20,0,0) tid=(95,0,0)
GPGPU-Sim uArch: cycles simulated: 32500  inst.: 7678912 (ipc=236.3) sim_rate=92517 (inst/sec) elapsed = 0:0:01:23 / Wed May 13 10:35:16 2015
GPGPU-Sim PTX: 7800000 instructions simulated : ctaid=(23,0,0) tid=(63,0,0)
GPGPU-Sim uArch: cycles simulated: 33000  inst.: 7799584 (ipc=236.4) sim_rate=91759 (inst/sec) elapsed = 0:0:01:25 / Wed May 13 10:35:18 2015
GPGPU-Sim PTX: 7900000 instructions simulated : ctaid=(35,0,0) tid=(127,0,0)
GPGPU-Sim uArch: cycles simulated: 33500  inst.: 7896960 (ipc=235.7) sim_rate=91825 (inst/sec) elapsed = 0:0:01:26 / Wed May 13 10:35:19 2015
GPGPU-Sim PTX: 8000000 instructions simulated : ctaid=(41,0,0) tid=(63,0,0)
GPGPU-Sim uArch: cycles simulated: 34000  inst.: 8004480 (ipc=235.4) sim_rate=92005 (inst/sec) elapsed = 0:0:01:27 / Wed May 13 10:35:20 2015
GPGPU-Sim PTX: 8100000 instructions simulated : ctaid=(41,0,0) tid=(127,0,0)
GPGPU-Sim uArch: cycles simulated: 34500  inst.: 8145152 (ipc=236.1) sim_rate=92558 (inst/sec) elapsed = 0:0:01:28 / Wed May 13 10:35:21 2015
GPGPU-Sim PTX: 8200000 instructions simulated : ctaid=(0,0,0) tid=(63,0,0)
GPGPU-Sim uArch: cycles simulated: 35000  inst.: 8264000 (ipc=236.1) sim_rate=91822 (inst/sec) elapsed = 0:0:01:30 / Wed May 13 10:35:23 2015
GPGPU-Sim PTX: 8300000 instructions simulated : ctaid=(1,0,0) tid=(63,0,0)
GPGPU-Sim uArch: cycles simulated: 35500  inst.: 8357760 (ipc=235.4) sim_rate=91843 (inst/sec) elapsed = 0:0:01:31 / Wed May 13 10:35:24 2015
GPGPU-Sim PTX: 8400000 instructions simulated : ctaid=(25,0,0) tid=(63,0,0)
GPGPU-Sim uArch: cycles simulated: 36000  inst.: 8472896 (ipc=235.4) sim_rate=92096 (inst/sec) elapsed = 0:0:01:32 / Wed May 13 10:35:25 2015
GPGPU-Sim PTX: 8500000 instructions simulated : ctaid=(33,0,0) tid=(63,0,0)
GPGPU-Sim PTX: 8600000 instructions simulated : ctaid=(8,0,0) tid=(31,0,0)
GPGPU-Sim uArch: cycles simulated: 36500  inst.: 8614752 (ipc=236.0) sim_rate=92631 (inst/sec) elapsed = 0:0:01:33 / Wed May 13 10:35:26 2015
GPGPU-Sim PTX: 8700000 instructions simulated : ctaid=(28,0,0) tid=(95,0,0)
GPGPU-Sim uArch: cycles simulated: 37000  inst.: 8726272 (ipc=235.8) sim_rate=92832 (inst/sec) elapsed = 0:0:01:34 / Wed May 13 10:35:27 2015
GPGPU-Sim PTX: 8800000 instructions simulated : ctaid=(33,0,0) tid=(63,0,0)
GPGPU-Sim uArch: cycles simulated: 37500  inst.: 8820192 (ipc=235.2) sim_rate=91877 (inst/sec) elapsed = 0:0:01:36 / Wed May 13 10:35:29 2015
GPGPU-Sim PTX: 8900000 instructions simulated : ctaid=(31,0,0) tid=(127,0,0)
GPGPU-Sim uArch: cycles simulated: 38000  inst.: 8951328 (ipc=235.6) sim_rate=92281 (inst/sec) elapsed = 0:0:01:37 / Wed May 13 10:35:30 2015
GPGPU-Sim PTX: 9000000 instructions simulated : ctaid=(11,0,0) tid=(63,0,0)
GPGPU-Sim PTX: 9100000 instructions simulated : ctaid=(24,0,0) tid=(127,0,0)
GPGPU-Sim uArch: cycles simulated: 38500  inst.: 9083712 (ipc=235.9) sim_rate=92690 (inst/sec) elapsed = 0:0:01:38 / Wed May 13 10:35:31 2015
GPGPU-Sim PTX: 9200000 instructions simulated : ctaid=(2,0,0) tid=(127,0,0)
GPGPU-Sim uArch: cycles simulated: 39000  inst.: 9187200 (ipc=235.6) sim_rate=92800 (inst/sec) elapsed = 0:0:01:39 / Wed May 13 10:35:32 2015
GPGPU-Sim PTX: 9300000 instructions simulated : ctaid=(42,0,0) tid=(127,0,0)
GPGPU-Sim uArch: cycles simulated: 39500  inst.: 9282368 (ipc=235.0) sim_rate=91904 (inst/sec) elapsed = 0:0:01:41 / Wed May 13 10:35:34 2015
GPGPU-Sim PTX: 9400000 instructions simulated : ctaid=(30,0,0) tid=(31,0,0)
GPGPU-Sim uArch: cycles simulated: 40000  inst.: 9415264 (ipc=235.4) sim_rate=92306 (inst/sec) elapsed = 0:0:01:42 / Wed May 13 10:35:35 2015
GPGPU-Sim PTX: 9500000 instructions simulated : ctaid=(35,0,0) tid=(63,0,0)
GPGPU-Sim uArch: cycles simulated: 40500  inst.: 9544512 (ipc=235.7) sim_rate=92665 (inst/sec) elapsed = 0:0:01:43 / Wed May 13 10:35:36 2015
GPGPU-Sim PTX: 9600000 instructions simulated : ctaid=(43,0,0) tid=(63,0,0)
GPGPU-Sim uArch: cycles simulated: 41000  inst.: 9648000 (ipc=235.3) sim_rate=92769 (inst/sec) elapsed = 0:0:01:44 / Wed May 13 10:35:37 2015
GPGPU-Sim PTX: 9700000 instructions simulated : ctaid=(3,0,0) tid=(31,0,0)
GPGPU-Sim uArch: cycles simulated: 41500  inst.: 9745152 (ipc=234.8) sim_rate=92810 (inst/sec) elapsed = 0:0:01:45 / Wed May 13 10:35:38 2015
GPGPU-Sim PTX: 9800000 instructions simulated : ctaid=(23,0,0) tid=(63,0,0)
GPGPU-Sim PTX: 9900000 instructions simulated : ctaid=(13,0,0) tid=(63,0,0)
GPGPU-Sim uArch: cycles simulated: 42000  inst.: 9883136 (ipc=235.3) sim_rate=92365 (inst/sec) elapsed = 0:0:01:47 / Wed May 13 10:35:40 2015
GPGPU-Sim PTX: 10000000 instructions simulated : ctaid=(3,0,0) tid=(63,0,0)
GPGPU-Sim uArch: cycles simulated: 42500  inst.: 10008768 (ipc=235.5) sim_rate=92673 (inst/sec) elapsed = 0:0:01:48 / Wed May 13 10:35:41 2015
GPGPU-Sim PTX: 10100000 instructions simulated : ctaid=(4,0,0) tid=(127,0,0)
GPGPU-Sim uArch: cycles simulated: 43000  inst.: 10108800 (ipc=235.1) sim_rate=92741 (inst/sec) elapsed = 0:0:01:49 / Wed May 13 10:35:42 2015
GPGPU-Sim PTX: 10200000 instructions simulated : ctaid=(28,0,0) tid=(63,0,0)
GPGPU-Sim uArch: cycles simulated: 43500  inst.: 10209792 (ipc=234.7) sim_rate=91980 (inst/sec) elapsed = 0:0:01:51 / Wed May 13 10:35:44 2015
GPGPU-Sim PTX: 10300000 instructions simulated : ctaid=(0,0,0) tid=(127,0,0)
GPGPU-Sim uArch: cycles simulated: 44000  inst.: 10348384 (ipc=235.2) sim_rate=92396 (inst/sec) elapsed = 0:0:01:52 / Wed May 13 10:35:45 2015
GPGPU-Sim PTX: 10400000 instructions simulated : ctaid=(27,0,0) tid=(127,0,0)
GPGPU-Sim uArch: cycles simulated: 44500  inst.: 10472768 (ipc=235.3) sim_rate=92679 (inst/sec) elapsed = 0:0:01:53 / Wed May 13 10:35:46 2015
GPGPU-Sim PTX: 10500000 instructions simulated : ctaid=(42,0,0) tid=(127,0,0)
GPGPU-Sim uArch: cycles simulated: 45000  inst.: 10569600 (ipc=234.9) sim_rate=92715 (inst/sec) elapsed = 0:0:01:54 / Wed May 13 10:35:47 2015
GPGPU-Sim PTX: 10600000 instructions simulated : ctaid=(33,0,0) tid=(31,0,0)
GPGPU-Sim PTX: 10700000 instructions simulated : ctaid=(5,0,0) tid=(63,0,0)
GPGPU-Sim uArch: cycles simulated: 45500  inst.: 10676224 (ipc=234.6) sim_rate=92036 (inst/sec) elapsed = 0:0:01:56 / Wed May 13 10:35:49 2015
GPGPU-Sim PTX: 10800000 instructions simulated : ctaid=(13,0,0) tid=(95,0,0)
GPGPU-Sim uArch: cycles simulated: 46000  inst.: 10815136 (ipc=235.1) sim_rate=92437 (inst/sec) elapsed = 0:0:01:57 / Wed May 13 10:35:50 2015
GPGPU-Sim PTX: 10900000 instructions simulated : ctaid=(33,0,0) tid=(31,0,0)
GPGPU-Sim uArch: cycles simulated: 46500  inst.: 10934848 (ipc=235.2) sim_rate=92668 (inst/sec) elapsed = 0:0:01:58 / Wed May 13 10:35:51 2015
GPGPU-Sim PTX: 11000000 instructions simulated : ctaid=(38,0,0) tid=(95,0,0)
GPGPU-Sim uArch: cycles simulated: 47000  inst.: 11030400 (ipc=234.7) sim_rate=92692 (inst/sec) elapsed = 0:0:01:59 / Wed May 13 10:35:52 2015
GPGPU-Sim PTX: 11100000 instructions simulated : ctaid=(28,0,0) tid=(31,0,0)
GPGPU-Sim uArch: cycles simulated: 47500  inst.: 11137344 (ipc=234.5) sim_rate=92044 (inst/sec) elapsed = 0:0:02:01 / Wed May 13 10:35:54 2015
GPGPU-Sim PTX: 11200000 instructions simulated : ctaid=(21,0,0) tid=(63,0,0)
GPGPU-Sim uArch: cycles simulated: 48000  inst.: 11271584 (ipc=234.8) sim_rate=90899 (inst/sec) elapsed = 0:0:02:04 / Wed May 13 10:35:57 2015
GPGPU-Sim PTX: 11300000 instructions simulated : ctaid=(33,0,0) tid=(127,0,0)
GPGPU-Sim PTX: 11400000 instructions simulated : ctaid=(30,0,0) tid=(127,0,0)
GPGPU-Sim uArch: cycles simulated: 48500  inst.: 11393568 (ipc=234.9) sim_rate=91148 (inst/sec) elapsed = 0:0:02:05 / Wed May 13 10:35:58 2015
GPGPU-Sim PTX: 11500000 instructions simulated : ctaid=(12,0,0) tid=(127,0,0)
GPGPU-Sim uArch: cycles simulated: 49000  inst.: 11491200 (ipc=234.5) sim_rate=91200 (inst/sec) elapsed = 0:0:02:06 / Wed May 13 10:35:59 2015
GPGPU-Sim PTX: 11600000 instructions simulated : ctaid=(39,0,0) tid=(127,0,0)
GPGPU-Sim uArch: cycles simulated: 49500  inst.: 11600896 (ipc=234.4) sim_rate=91345 (inst/sec) elapsed = 0:0:02:07 / Wed May 13 10:36:00 2015
GPGPU-Sim PTX: 11700000 instructions simulated : ctaid=(0,0,0) tid=(95,0,0)
GPGPU-Sim uArch: cycles simulated: 50000  inst.: 11738752 (ipc=234.8) sim_rate=90998 (inst/sec) elapsed = 0:0:02:09 / Wed May 13 10:36:02 2015
GPGPU-Sim PTX: 11800000 instructions simulated : ctaid=(10,0,0) tid=(63,0,0)
GPGPU-Sim uArch: cycles simulated: 50500  inst.: 11856416 (ipc=234.8) sim_rate=91203 (inst/sec) elapsed = 0:0:02:10 / Wed May 13 10:36:03 2015
GPGPU-Sim PTX: 11900000 instructions simulated : ctaid=(15,0,0) tid=(95,0,0)
GPGPU-Sim uArch: cycles simulated: 51000  inst.: 11952000 (ipc=234.4) sim_rate=91236 (inst/sec) elapsed = 0:0:02:11 / Wed May 13 10:36:04 2015
GPGPU-Sim PTX: 12000000 instructions simulated : ctaid=(43,0,0) tid=(31,0,0)
GPGPU-Sim uArch: cycles simulated: 51500  inst.: 12065792 (ipc=234.3) sim_rate=91407 (inst/sec) elapsed = 0:0:02:12 / Wed May 13 10:36:05 2015
GPGPU-Sim PTX: 12100000 instructions simulated : ctaid=(33,0,0) tid=(63,0,0)
GPGPU-Sim PTX: 12200000 instructions simulated : ctaid=(23,0,0) tid=(31,0,0)
GPGPU-Sim uArch: cycles simulated: 52000  inst.: 12204480 (ipc=234.7) sim_rate=91078 (inst/sec) elapsed = 0:0:02:14 / Wed May 13 10:36:07 2015
GPGPU-Sim PTX: 12300000 instructions simulated : ctaid=(28,0,0) tid=(95,0,0)
GPGPU-Sim uArch: cycles simulated: 52500  inst.: 12319328 (ipc=234.7) sim_rate=91254 (inst/sec) elapsed = 0:0:02:15 / Wed May 13 10:36:08 2015
GPGPU-Sim PTX: 12400000 instructions simulated : ctaid=(5,0,0) tid=(63,0,0)
GPGPU-Sim uArch: cycles simulated: 53000  inst.: 12412800 (ipc=234.2) sim_rate=91270 (inst/sec) elapsed = 0:0:02:16 / Wed May 13 10:36:09 2015
GPGPU-Sim PTX: 12500000 instructions simulated : ctaid=(36,0,0) tid=(95,0,0)
GPGPU-Sim uArch: cycles simulated: 53500  inst.: 12534080 (ipc=234.3) sim_rate=91489 (inst/sec) elapsed = 0:0:02:17 / Wed May 13 10:36:10 2015
GPGPU-Sim PTX: 12600000 instructions simulated : ctaid=(41,0,0) tid=(63,0,0)
GPGPU-Sim PTX: 12700000 instructions simulated : ctaid=(41,0,0) tid=(63,0,0)
GPGPU-Sim uArch: cycles simulated: 54000  inst.: 12676032 (ipc=234.7) sim_rate=91194 (inst/sec) elapsed = 0:0:02:19 / Wed May 13 10:36:12 2015
GPGPU-Sim PTX: 12800000 instructions simulated : ctaid=(40,0,0) tid=(127,0,0)
GPGPU-Sim uArch: cycles simulated: 54500  inst.: 12781440 (ipc=234.5) sim_rate=91296 (inst/sec) elapsed = 0:0:02:20 / Wed May 13 10:36:13 2015
GPGPU-Sim PTX: 12900000 instructions simulated : ctaid=(16,0,0) tid=(63,0,0)
GPGPU-Sim uArch: cycles simulated: 55000  inst.: 12877056 (ipc=234.1) sim_rate=91326 (inst/sec) elapsed = 0:0:02:21 / Wed May 13 10:36:14 2015
GPGPU-Sim PTX: 13000000 instructions simulated : ctaid=(22,0,0) tid=(31,0,0)
GPGPU-Sim uArch: cycles simulated: 55500  inst.: 13011168 (ipc=234.4) sim_rate=90987 (inst/sec) elapsed = 0:0:02:23 / Wed May 13 10:36:16 2015
GPGPU-Sim PTX: 13100000 instructions simulated : ctaid=(35,0,0) tid=(95,0,0)
GPGPU-Sim uArch: cycles simulated: 56000  inst.: 13141920 (ipc=234.7) sim_rate=91263 (inst/sec) elapsed = 0:0:02:24 / Wed May 13 10:36:17 2015
GPGPU-Sim PTX: 13200000 instructions simulated : ctaid=(43,0,0) tid=(95,0,0)
GPGPU-Sim uArch: cycles simulated: 56500  inst.: 13242240 (ipc=234.4) sim_rate=91325 (inst/sec) elapsed = 0:0:02:25 / Wed May 13 10:36:18 2015
GPGPU-Sim PTX: 13300000 instructions simulated : ctaid=(3,0,0) tid=(31,0,0)
GPGPU-Sim uArch: cycles simulated: 57000  inst.: 13346688 (ipc=234.2) sim_rate=91415 (inst/sec) elapsed = 0:0:02:26 / Wed May 13 10:36:19 2015
GPGPU-Sim PTX: 13400000 instructions simulated : ctaid=(38,0,0) tid=(63,0,0)
GPGPU-Sim PTX: 13500000 instructions simulated : ctaid=(13,0,0) tid=(63,0,0)
GPGPU-Sim uArch: cycles simulated: 57500  inst.: 13490336 (ipc=234.6) sim_rate=91150 (inst/sec) elapsed = 0:0:02:28 / Wed May 13 10:36:21 2015
GPGPU-Sim PTX: 13600000 instructions simulated : ctaid=(20,0,0) tid=(95,0,0)
GPGPU-Sim uArch: cycles simulated: 58000  inst.: 13610016 (ipc=234.7) sim_rate=91342 (inst/sec) elapsed = 0:0:02:29 / Wed May 13 10:36:22 2015
GPGPU-Sim PTX: 13700000 instructions simulated : ctaid=(32,0,0) tid=(63,0,0)
GPGPU-Sim uArch: cycles simulated: 58500  inst.: 13703040 (ipc=234.2) sim_rate=91353 (inst/sec) elapsed = 0:0:02:30 / Wed May 13 10:36:23 2015
GPGPU-Sim PTX: 13800000 instructions simulated : ctaid=(41,0,0) tid=(95,0,0)
GPGPU-Sim uArch: cycles simulated: 59000  inst.: 13821600 (ipc=234.3) sim_rate=91533 (inst/sec) elapsed = 0:0:02:31 / Wed May 13 10:36:24 2015
GPGPU-Sim PTX: 13900000 instructions simulated : ctaid=(34,0,0) tid=(127,0,0)
GPGPU-Sim uArch: cycles simulated: 59500  inst.: 13961984 (ipc=234.7) sim_rate=91254 (inst/sec) elapsed = 0:0:02:33 / Wed May 13 10:36:26 2015
GPGPU-Sim PTX: 14000000 instructions simulated : ctaid=(24,0,0) tid=(127,0,0)
GPGPU-Sim uArch: cycles simulated: 60000  inst.: 14071680 (ipc=234.5) sim_rate=91374 (inst/sec) elapsed = 0:0:02:34 / Wed May 13 10:36:27 2015
GPGPU-Sim PTX: 14100000 instructions simulated : ctaid=(2,0,0) tid=(95,0,0)
GPGPU-Sim uArch: cycles simulated: 60500  inst.: 14165600 (ipc=234.1) sim_rate=91390 (inst/sec) elapsed = 0:0:02:35 / Wed May 13 10:36:28 2015
GPGPU-Sim PTX: 14200000 instructions simulated : ctaid=(0,0,0) tid=(31,0,0)
GPGPU-Sim PTX: 14300000 instructions simulated : ctaid=(38,0,0) tid=(63,0,0)
GPGPU-Sim uArch: cycles simulated: 61000  inst.: 14293920 (ipc=234.3) sim_rate=91627 (inst/sec) elapsed = 0:0:02:36 / Wed May 13 10:36:29 2015
GPGPU-Sim PTX: 14400000 instructions simulated : ctaid=(28,0,0) tid=(95,0,0)
GPGPU-Sim uArch: cycles simulated: 61500  inst.: 14426880 (ipc=234.6) sim_rate=91309 (inst/sec) elapsed = 0:0:02:38 / Wed May 13 10:36:31 2015
GPGPU-Sim PTX: 14500000 instructions simulated : ctaid=(33,0,0) tid=(95,0,0)
GPGPU-Sim uArch: cycles simulated: 62000  inst.: 14532480 (ipc=234.4) sim_rate=91399 (inst/sec) elapsed = 0:0:02:39 / Wed May 13 10:36:32 2015
GPGPU-Sim PTX: 14600000 instructions simulated : ctaid=(23,0,0) tid=(31,0,0)
GPGPU-Sim uArch: cycles simulated: 62500  inst.: 14626880 (ipc=234.0) sim_rate=91418 (inst/sec) elapsed = 0:0:02:40 / Wed May 13 10:36:33 2015
GPGPU-Sim PTX: 14700000 instructions simulated : ctaid=(27,0,0) tid=(127,0,0)
GPGPU-Sim uArch: cycles simulated: 63000  inst.: 14713856 (ipc=233.6) sim_rate=91390 (inst/sec) elapsed = 0:0:02:41 / Wed May 13 10:36:34 2015
GPGPU-Sim uArch: cycles simulated: 63500  inst.: 14723104 (ipc=231.9) sim_rate=90883 (inst/sec) elapsed = 0:0:02:42 / Wed May 13 10:36:35 2015
GPGPU-Sim uArch: Shader 11 finished CTA #2 (63642,0), 2 CTAs running
GPGPU-Sim uArch: core: 11, cta: 2 initialized @(63643,0)
GPGPU-Sim uArch: Shader 4 finished CTA #0 (63757,0), 2 CTAs running
GPGPU-Sim uArch: core:  4, cta: 0 initialized @(63758,0)
GPGPU-Sim uArch: Shader 10 finished CTA #0 (63787,0), 2 CTAs running
GPGPU-Sim uArch: core: 10, cta: 0 initialized @(63788,0)
GPGPU-Sim uArch: Shader 4 finished CTA #1 (63880,0), 2 CTAs running
GPGPU-Sim uArch: core:  4, cta: 1 initialized @(63881,0)
GPGPU-Sim uArch: Shader 5 finished CTA #0 (63881,0), 2 CTAs running
GPGPU-Sim uArch: core:  5, cta: 0 initialized @(63882,0)
GPGPU-Sim uArch: Shader 10 finished CTA #1 (63901,0), 2 CTAs running
GPGPU-Sim uArch: core: 10, cta: 1 initialized @(63902,0)
GPGPU-Sim uArch: Shader 9 finished CTA #0 (63910,0), 2 CTAs running
GPGPU-Sim uArch: core:  9, cta: 0 initialized @(63911,0)
GPGPU-Sim uArch: Shader 14 finished CTA #0 (63911,0), 2 CTAs running
GPGPU-Sim uArch: core: 14, cta: 0 initialized @(63912,0)
GPGPU-Sim uArch: Shader 5 finished CTA #1 (63932,0), 2 CTAs running
GPGPU-Sim uArch: core:  5, cta: 1 initialized @(63933,0)
GPGPU-Sim uArch: Shader 1 finished CTA #0 (63937,0), 2 CTAs running
GPGPU-Sim uArch: core:  1, cta: 0 initialized @(63938,0)
GPGPU-Sim uArch: Shader 9 finished CTA #1 (63946,0), 2 CTAs running
GPGPU-Sim uArch: core:  9, cta: 1 initialized @(63947,0)
GPGPU-Sim uArch: Shader 4 finished CTA #2 (63947,0), 2 CTAs running
GPGPU-Sim uArch: Shader 8 finished CTA #2 (63947,0), 2 CTAs running
GPGPU-Sim uArch: core:  4, cta: 2 initialized @(63948,0)
GPGPU-Sim uArch: core:  8, cta: 2 initialized @(63948,0)
GPGPU-Sim uArch: Shader 13 finished CTA #0 (63961,0), 2 CTAs running
GPGPU-Sim uArch: core: 13, cta: 0 initialized @(63962,0)
GPGPU-Sim uArch: Shader 11 finished CTA #0 (63965,0), 2 CTAs running
GPGPU-Sim uArch: core: 11, cta: 0 initialized @(63966,0)
GPGPU-Sim uArch: Shader 9 finished CTA #2 (63982,0), 2 CTAs running
GPGPU-Sim uArch: core:  9, cta: 2 initialized @(63983,0)
GPGPU-Sim uArch: Shader 14 finished CTA #1 (63992,0), 2 CTAs running
GPGPU-Sim uArch: core: 14, cta: 1 initialized @(63993,0)
GPGPU-Sim uArch: cycles simulated: 64000  inst.: 14737408 (ipc=230.3) sim_rate=89862 (inst/sec) elapsed = 0:0:02:44 / Wed May 13 10:36:37 2015
GPGPU-Sim uArch: Shader 5 finished CTA #2 (64004,0), 2 CTAs running
GPGPU-Sim uArch: core:  5, cta: 2 initialized @(64005,0)
GPGPU-Sim uArch: Shader 10 finished CTA #2 (64022,0), 2 CTAs running
GPGPU-Sim uArch: core: 10, cta: 2 initialized @(64023,0)
GPGPU-Sim uArch: Shader 2 finished CTA #0 (64033,0), 2 CTAs running
GPGPU-Sim uArch: core:  2, cta: 0 initialized @(64034,0)
GPGPU-Sim uArch: Shader 1 finished CTA #1 (64039,0), 2 CTAs running
GPGPU-Sim uArch: core:  1, cta: 1 initialized @(64040,0)
GPGPU-Sim uArch: Shader 13 finished CTA #1 (64048,0), 2 CTAs running
GPGPU-Sim uArch: core: 13, cta: 1 initialized @(64049,0)
GPGPU-Sim uArch: Shader 8 finished CTA #0 (64053,0), 2 CTAs running
GPGPU-Sim uArch: core:  8, cta: 0 initialized @(64054,0)
GPGPU-Sim uArch: Shader 7 finished CTA #0 (64060,0), 2 CTAs running
GPGPU-Sim uArch: core:  7, cta: 0 initialized @(64061,0)
GPGPU-Sim uArch: Shader 12 finished CTA #0 (64072,0), 2 CTAs running
GPGPU-Sim uArch: core: 12, cta: 0 initialized @(64073,0)
GPGPU-Sim uArch: Shader 11 finished CTA #1 (64076,0), 2 CTAs running
GPGPU-Sim uArch: core: 11, cta: 1 initialized @(64077,0)
GPGPU-Sim uArch: Shader 2 finished CTA #1 (64083,0), 2 CTAs running
GPGPU-Sim uArch: core:  2, cta: 1 initialized @(64084,0)
GPGPU-Sim uArch: Shader 6 finished CTA #0 (64096,0), 2 CTAs running
GPGPU-Sim uArch: Shader 7 finished CTA #1 (64096,0), 2 CTAs running
GPGPU-Sim uArch: Shader 14 finished CTA #2 (64096,0), 2 CTAs running
GPGPU-Sim uArch: core:  6, cta: 0 initialized @(64097,0)
GPGPU-Sim uArch: core:  7, cta: 1 initialized @(64097,0)
GPGPU-Sim uArch: core: 14, cta: 2 initialized @(64097,0)
GPGPU-Sim uArch: Shader 8 finished CTA #1 (64104,0), 2 CTAs running
GPGPU-Sim uArch: core:  8, cta: 1 initialized @(64105,0)
GPGPU-Sim uArch: Shader 1 finished CTA #2 (64123,0), 2 CTAs running
GPGPU-Sim uArch: core:  1, cta: 2 initialized @(64124,0)
GPGPU-Sim uArch: Shader 12 finished CTA #1 (64126,0), 2 CTAs running
GPGPU-Sim uArch: core: 12, cta: 1 initialized @(64127,0)
GPGPU-Sim uArch: Shader 2 finished CTA #2 (64135,0), 2 CTAs running
GPGPU-Sim uArch: Shader 13 finished CTA #2 (64135,0), 2 CTAs running
GPGPU-Sim uArch: core: 13, cta: 2 initialized @(64136,0)
GPGPU-Sim uArch: core:  2, cta: 2 initialized @(64136,0)
GPGPU-Sim uArch: Shader 7 finished CTA #2 (64156,0), 2 CTAs running
GPGPU-Sim uArch: core:  7, cta: 2 initialized @(64157,0)
GPGPU-Sim uArch: Shader 12 finished CTA #2 (64162,0), 2 CTAs running
GPGPU-Sim uArch: core: 12, cta: 2 initialized @(64163,0)
GPGPU-Sim uArch: Shader 6 finished CTA #1 (64198,0), 2 CTAs running
GPGPU-Sim uArch: core:  6, cta: 1 initialized @(64199,0)
GPGPU-Sim PTX: 14800000 instructions simulated : ctaid=(57,0,0) tid=(95,0,0)
GPGPU-Sim uArch: Shader 6 finished CTA #2 (64234,0), 2 CTAs running
GPGPU-Sim uArch: core:  6, cta: 2 initialized @(64235,0)
GPGPU-Sim uArch: Shader 0 finished CTA #0 (64261,0), 2 CTAs running
GPGPU-Sim uArch: core:  0, cta: 0 initialized @(64262,0)
GPGPU-Sim uArch: Shader 3 finished CTA #0 (64264,0), 2 CTAs running
GPGPU-Sim uArch: core:  3, cta: 0 initialized @(64265,0)
GPGPU-Sim uArch: Shader 0 finished CTA #1 (64330,0), 2 CTAs running
GPGPU-Sim uArch: core:  0, cta: 1 initialized @(64331,0)
GPGPU-Sim uArch: Shader 3 finished CTA #1 (64333,0), 2 CTAs running
GPGPU-Sim uArch: core:  3, cta: 1 initialized @(64334,0)
GPGPU-Sim uArch: Shader 0 finished CTA #2 (64399,0), 2 CTAs running
GPGPU-Sim uArch: core:  0, cta: 2 initialized @(64400,0)
GPGPU-Sim uArch: Shader 3 finished CTA #2 (64402,0), 2 CTAs running
GPGPU-Sim uArch: core:  3, cta: 2 initialized @(64403,0)
GPGPU-Sim uArch: cycles simulated: 64500  inst.: 14858912 (ipc=230.4) sim_rate=88975 (inst/sec) elapsed = 0:0:02:47 / Wed May 13 10:36:40 2015
GPGPU-Sim PTX: 14900000 instructions simulated : ctaid=(47,0,0) tid=(95,0,0)
GPGPU-Sim PTX: 15000000 instructions simulated : ctaid=(50,0,0) tid=(95,0,0)
GPGPU-Sim uArch: cycles simulated: 65000  inst.: 15025472 (ipc=231.2) sim_rate=88908 (inst/sec) elapsed = 0:0:02:49 / Wed May 13 10:36:42 2015
GPGPU-Sim PTX: 15100000 instructions simulated : ctaid=(73,0,0) tid=(127,0,0)
GPGPU-Sim PTX: 15200000 instructions simulated : ctaid=(51,0,0) tid=(63,0,0)
GPGPU-Sim uArch: cycles simulated: 65500  inst.: 15178816 (ipc=231.7) sim_rate=89287 (inst/sec) elapsed = 0:0:02:50 / Wed May 13 10:36:43 2015
GPGPU-Sim PTX: 15300000 instructions simulated : ctaid=(89,0,0) tid=(127,0,0)
GPGPU-Sim uArch: cycles simulated: 66000  inst.: 15290240 (ipc=231.7) sim_rate=88896 (inst/sec) elapsed = 0:0:02:52 / Wed May 13 10:36:45 2015
GPGPU-Sim PTX: 15400000 instructions simulated : ctaid=(62,0,0) tid=(63,0,0)
GPGPU-Sim PTX: 15500000 instructions simulated : ctaid=(84,0,0) tid=(31,0,0)
GPGPU-Sim uArch: cycles simulated: 66500  inst.: 15456544 (ipc=232.4) sim_rate=89344 (inst/sec) elapsed = 0:0:02:53 / Wed May 13 10:36:46 2015
GPGPU-Sim PTX: 15600000 instructions simulated : ctaid=(54,0,0) tid=(63,0,0)
GPGPU-Sim PTX: 15700000 instructions simulated : ctaid=(83,0,0) tid=(31,0,0)
GPGPU-Sim uArch: cycles simulated: 67000  inst.: 15696480 (ipc=234.3) sim_rate=89694 (inst/sec) elapsed = 0:0:02:55 / Wed May 13 10:36:48 2015
GPGPU-Sim PTX: 15800000 instructions simulated : ctaid=(69,0,0) tid=(95,0,0)
GPGPU-Sim PTX: 15900000 instructions simulated : ctaid=(50,0,0) tid=(95,0,0)
GPGPU-Sim uArch: cycles simulated: 67500  inst.: 15918368 (ipc=235.8) sim_rate=89934 (inst/sec) elapsed = 0:0:02:57 / Wed May 13 10:36:50 2015
GPGPU-Sim PTX: 16000000 instructions simulated : ctaid=(74,0,0) tid=(127,0,0)
GPGPU-Sim PTX: 16100000 instructions simulated : ctaid=(67,0,0) tid=(95,0,0)
GPGPU-Sim uArch: cycles simulated: 68000  inst.: 16134080 (ipc=237.3) sim_rate=90134 (inst/sec) elapsed = 0:0:02:59 / Wed May 13 10:36:52 2015
GPGPU-Sim PTX: 16200000 instructions simulated : ctaid=(84,0,0) tid=(127,0,0)
GPGPU-Sim PTX: 16300000 instructions simulated : ctaid=(56,0,0) tid=(95,0,0)
GPGPU-Sim PTX: 16400000 instructions simulated : ctaid=(57,0,0) tid=(63,0,0)
GPGPU-Sim uArch: cycles simulated: 68500  inst.: 16348384 (ipc=238.7) sim_rate=90322 (inst/sec) elapsed = 0:0:03:01 / Wed May 13 10:36:54 2015
GPGPU-Sim PTX: 16500000 instructions simulated : ctaid=(69,0,0) tid=(31,0,0)
GPGPU-Sim PTX: 16600000 instructions simulated : ctaid=(75,0,0) tid=(95,0,0)
GPGPU-Sim uArch: cycles simulated: 69000  inst.: 16554464 (ipc=239.9) sim_rate=90461 (inst/sec) elapsed = 0:0:03:03 / Wed May 13 10:36:56 2015
GPGPU-Sim PTX: 16700000 instructions simulated : ctaid=(52,0,0) tid=(31,0,0)
GPGPU-Sim PTX: 16800000 instructions simulated : ctaid=(68,0,0) tid=(127,0,0)
GPGPU-Sim uArch: cycles simulated: 69500  inst.: 16765728 (ipc=241.2) sim_rate=90625 (inst/sec) elapsed = 0:0:03:05 / Wed May 13 10:36:58 2015
GPGPU-Sim PTX: 16900000 instructions simulated : ctaid=(60,0,0) tid=(31,0,0)
GPGPU-Sim PTX: 17000000 instructions simulated : ctaid=(66,0,0) tid=(63,0,0)
GPGPU-Sim uArch: cycles simulated: 70000  inst.: 16969024 (ipc=242.4) sim_rate=90743 (inst/sec) elapsed = 0:0:03:07 / Wed May 13 10:37:00 2015
GPGPU-Sim PTX: 17100000 instructions simulated : ctaid=(72,0,0) tid=(95,0,0)
GPGPU-Sim PTX: 17200000 instructions simulated : ctaid=(66,0,0) tid=(127,0,0)
GPGPU-Sim uArch: cycles simulated: 70500  inst.: 17169312 (ipc=243.5) sim_rate=90842 (inst/sec) elapsed = 0:0:03:09 / Wed May 13 10:37:02 2015
GPGPU-Sim PTX: 17300000 instructions simulated : ctaid=(61,0,0) tid=(95,0,0)
GPGPU-Sim PTX: 17400000 instructions simulated : ctaid=(80,0,0) tid=(127,0,0)
GPGPU-Sim uArch: cycles simulated: 71000  inst.: 17369856 (ipc=244.6) sim_rate=90941 (inst/sec) elapsed = 0:0:03:11 / Wed May 13 10:37:04 2015
GPGPU-Sim PTX: 17500000 instructions simulated : ctaid=(85,0,0) tid=(31,0,0)
GPGPU-Sim PTX: 17600000 instructions simulated : ctaid=(83,0,0) tid=(95,0,0)
GPGPU-Sim uArch: cycles simulated: 71500  inst.: 17563744 (ipc=245.6) sim_rate=91003 (inst/sec) elapsed = 0:0:03:13 / Wed May 13 10:37:06 2015
GPGPU-Sim PTX: 17700000 instructions simulated : ctaid=(60,0,0) tid=(31,0,0)
GPGPU-Sim PTX: 17800000 instructions simulated : ctaid=(51,0,0) tid=(95,0,0)
GPGPU-Sim uArch: cycles simulated: 72000  inst.: 17750400 (ipc=246.5) sim_rate=91496 (inst/sec) elapsed = 0:0:03:14 / Wed May 13 10:37:07 2015
GPGPU-Sim PTX: 17900000 instructions simulated : ctaid=(71,0,0) tid=(95,0,0)
GPGPU-Sim uArch: cycles simulated: 72500  inst.: 17929600 (ipc=247.3) sim_rate=91477 (inst/sec) elapsed = 0:0:03:16 / Wed May 13 10:37:09 2015
GPGPU-Sim PTX: 18000000 instructions simulated : ctaid=(76,0,0) tid=(31,0,0)
GPGPU-Sim PTX: 18100000 instructions simulated : ctaid=(62,0,0) tid=(127,0,0)
GPGPU-Sim uArch: cycles simulated: 73000  inst.: 18109472 (ipc=248.1) sim_rate=91461 (inst/sec) elapsed = 0:0:03:18 / Wed May 13 10:37:11 2015
GPGPU-Sim PTX: 18200000 instructions simulated : ctaid=(45,0,0) tid=(127,0,0)
GPGPU-Sim PTX: 18300000 instructions simulated : ctaid=(79,0,0) tid=(127,0,0)
GPGPU-Sim uArch: cycles simulated: 73500  inst.: 18288576 (ipc=248.8) sim_rate=91902 (inst/sec) elapsed = 0:0:03:19 / Wed May 13 10:37:12 2015
GPGPU-Sim PTX: 18400000 instructions simulated : ctaid=(63,0,0) tid=(95,0,0)
GPGPU-Sim PTX: 18500000 instructions simulated : ctaid=(81,0,0) tid=(127,0,0)
GPGPU-Sim uArch: cycles simulated: 74000  inst.: 18469120 (ipc=249.6) sim_rate=91886 (inst/sec) elapsed = 0:0:03:21 / Wed May 13 10:37:14 2015
GPGPU-Sim PTX: 18600000 instructions simulated : ctaid=(68,0,0) tid=(127,0,0)
GPGPU-Sim PTX: 18700000 instructions simulated : ctaid=(59,0,0) tid=(31,0,0)
GPGPU-Sim uArch: cycles simulated: 74500  inst.: 18648480 (ipc=250.3) sim_rate=91864 (inst/sec) elapsed = 0:0:03:23 / Wed May 13 10:37:16 2015
GPGPU-Sim PTX: 18800000 instructions simulated : ctaid=(59,0,0) tid=(63,0,0)
GPGPU-Sim uArch: cycles simulated: 75000  inst.: 18828224 (ipc=251.0) sim_rate=92295 (inst/sec) elapsed = 0:0:03:24 / Wed May 13 10:37:17 2015
GPGPU-Sim PTX: 18900000 instructions simulated : ctaid=(45,0,0) tid=(95,0,0)
GPGPU-Sim PTX: 19000000 instructions simulated : ctaid=(77,0,0) tid=(63,0,0)
GPGPU-Sim uArch: cycles simulated: 75500  inst.: 19009888 (ipc=251.8) sim_rate=92281 (inst/sec) elapsed = 0:0:03:26 / Wed May 13 10:37:19 2015
GPGPU-Sim PTX: 19100000 instructions simulated : ctaid=(68,0,0) tid=(95,0,0)
GPGPU-Sim PTX: 19200000 instructions simulated : ctaid=(61,0,0) tid=(127,0,0)
GPGPU-Sim uArch: cycles simulated: 76000  inst.: 19191168 (ipc=252.5) sim_rate=92265 (inst/sec) elapsed = 0:0:03:28 / Wed May 13 10:37:21 2015
GPGPU-Sim PTX: 19300000 instructions simulated : ctaid=(58,0,0) tid=(127,0,0)
GPGPU-Sim PTX: 19400000 instructions simulated : ctaid=(82,0,0) tid=(127,0,0)
GPGPU-Sim uArch: cycles simulated: 76500  inst.: 19373152 (ipc=253.2) sim_rate=92253 (inst/sec) elapsed = 0:0:03:30 / Wed May 13 10:37:23 2015
GPGPU-Sim PTX: 19500000 instructions simulated : ctaid=(85,0,0) tid=(127,0,0)
GPGPU-Sim PTX: 19600000 instructions simulated : ctaid=(81,0,0) tid=(31,0,0)
GPGPU-Sim uArch: cycles simulated: 77000  inst.: 19554048 (ipc=253.9) sim_rate=92673 (inst/sec) elapsed = 0:0:03:31 / Wed May 13 10:37:24 2015
[...]
traffic_breakdown_memtocore[INST_ACC_R] = 3864304 {136:28414,}
maxmrqlatency = 169 
maxdqlatency = 0 
maxmflatency = 757 
averagemflatency = 236 
max_icnt2mem_latency = 460 
max_icnt2sh_latency = 381574 
mrq_lat_table:3386 	201 	244 	2757 	1541 	777 	422 	46 	0 	0 	0 	0 	0 	0 	0 	0 	0 	0 	0 	0 	0 	0 	0 	0 	0 	0 	0 	0 	0 	0 	0 	0 	
dq_lat_table:0 	0 	0 	0 	0 	0 	0 	0 	0 	0 	0 	0 	0 	0 	0 	0 	0 	0 	0 	0 	0 	0 	0 	0 	0 	0 	0 	0 	0 	0 	0 	0 	
mf_lat_table:0 	0 	0 	0 	0 	0 	0 	17022 	9026 	363 	0 	0 	0 	0 	0 	0 	0 	0 	0 	0 	0 	0 	0 	0 	0 	0 	0 	0 	0 	0 	0 	0 	
icnt2mem_lat_table:0 	0 	0 	31384 	3112 	14868 	4528 	763 	170 	0 	0 	0 	0 	0 	0 	0 	0 	0 	0 	0 	0 	0 	0 	0 	
icnt2sh_lat_table:0 	0 	0 	1115 	630 	89 	1 	0 	0 	0 	0 	0 	0 	0 	0 	2880 	2880 	9969 	8847 	0 	0 	0 	0 	0 	
mf_lat_pw_table:0 	0 	0 	0 	0 	0 	0 	160 	42 	0 	0 	0 	0 	0 	0 	0 	0 	0 	0 	0 	0 	0 	0 	0 	0 	0 	0 	0 	0 	0 	0 	0 	
maximum concurrent accesses to same row:
dram[0]:         7         8         6         5        10        10         0         0         0         0         0         0         0         0         0         0 
dram[1]:         8         8         6         4        10        10         0         0         0         0         0         0         0         0         0         0 
dram[2]:         8         8         6         4        10        12         0         0         0         0         0         0         0         0         0         0 
dram[3]:         8         8         6         4        10        12         0         0         0         0         0         0         0         0         0         0 
dram[4]:         8         8         6         4        10        12         0         0         0         0         0         0         0         0         0         0 
dram[5]:         7         8         6         4        10        12         0         0         0         0         0         0         0         0         0         0 
maximum service time to same row:
dram[0]:    143190    138419    186903    214041    332230    332767      3653      3682    107850    107863    189426    222379     62832     62940     62997     63154 
dram[1]:    142675    137455    187180    213194    332725    332739      3657      3691    107928    107869    189434    222415     62816     62851     63047     63144 
dram[2]:    141866    136707    186408    212469    332805    332830      3660      3682    107857    107921    189888    222469     62841     62907     62974     63020 
dram[3]:    141000    135894    216603    211778    332756    332743      3665      3688    107929    107999    222541    222544     62835     62821     63129     63127 
dram[4]:    140348    135137    215842    211090    332859    332829      3640      3693    107754    107929    222401    222475     62859     62844     62980     63032 
dram[5]:    138601    134267    214792    210184    332725    332777      3644      3697    107818    108001    222409    222547     62826     62809     63110     63127 
average row accesses per activate:
dram[0]: 42.250000 84.000000 83.000000 82.500000 60.000000 60.000000 32.000000 32.000000 32.000000 32.000000 32.000000 32.000000 72.000000 72.000000 160.000000 160.000000 
dram[1]: 84.000000 84.000000 83.000000 82.000000 60.000000 60.000000 32.000000 32.000000 32.000000 32.000000 32.000000 32.000000 72.000000 72.000000 160.000000 160.000000 
dram[2]: 84.000000 84.000000 83.000000 82.000000 60.000000 61.000000 32.000000 32.000000 32.000000 32.000000 32.000000 32.000000 72.000000 71.000000 160.000000 160.000000 
dram[3]: 84.000000 84.000000 83.000000 82.000000 60.000000 56.000000 32.000000 32.000000 32.000000 32.000000 32.000000 32.000000 72.000000 80.000000 160.000000 160.000000 
dram[4]: 84.000000 84.000000 83.000000 82.000000 60.000000 56.000000 32.000000 32.000000 32.000000 32.000000 32.000000 32.000000 72.000000 80.000000 160.000000 160.000000 
dram[5]: 83.500000 84.000000 83.000000 82.000000 60.000000 56.000000 32.000000 32.000000 32.000000 32.000000 32.000000 32.000000 72.000000 80.000000 160.000000 160.000000 
average row locality = 9374/134 = 69.955223
number of total memory accesses made:
dram[0]:         0         0         0         0         0         0         0         0         0         0         0         0         0         0         0         0 
dram[1]:         0         0         0         0         0         0         0         0         0         0         0         0         0         0         0         0 
dram[2]:         0         0         0         0         0         0         0         0         0         0         0         0         0         0         0         0 
dram[3]:         0         0         0         0         0         0         0         0         0         0         0         0         0         0         0         0 
dram[4]:         0         0         0         0         0         0         0         0         0         0         0         0         0         0         0         0 
dram[5]:         0         0         0         0         0         0         0         0         0         0         0         0         0         0         0         0 
total accesses: 0
min_bank_accesses = 0!
min_chip_accesses = 0!
number of total read accesses:
dram[0]:        41        40        38        37        32        32        32        32        32        32        32        32        32        32        32        32 
dram[1]:        40        40        38        36        32        32        32        32        32        32        32        32        32        32        32        32 
dram[2]:        40        40        38        36        32        34        32        32        32        32        32        32        32        31        32        32 
dram[3]:        40        40        38        36        32        32        32        32        32        32        32        32        32        32        32        32 
dram[4]:        40        40        38        36        32        32        32        32        32        32        32        32        32        32        32        32 
dram[5]:        39        40        38        36        32        32        32        32        32        32        32        32        32        32        32        32 
total reads: 3230
bank skew: 41/31 = 1.32
chip skew: 540/537 = 1.01
number of total write accesses:
dram[0]:       128       128       128       128        88        88         0         0         0         0         0         0        40        40       128       128 
dram[1]:       128       128       128       128        88        88         0         0         0         0         0         0        40        40       128       128 
dram[2]:       128       128       128       128        88        88         0         0         0         0         0         0        40        40       128       128 
dram[3]:       128       128       128       128        88        80         0         0         0         0         0         0        40        48       128       128 
dram[4]:       128       128       128       128        88        80         0         0         0         0         0         0        40        48       128       128 
dram[5]:       128       128       128       128        88        80         0         0         0         0         0         0        40        48       128       128 
total reads: 6144
min_bank_accesses = 0!
chip skew: 1024/1024 = 1.00
average mf latency per bank:
dram[0]:        677       685       680       657       663       642       340       332       311       322       310       315       736       869       828       847
dram[1]:        674       693       672       654       645       676       277       273       263       261       261       262       972       759       859       788
dram[2]:        707       699       670       686       646       676       346       343       304       314       314       310       788       749       819       810
dram[3]:        691       690       707       673       661       654       271       271       263       265       261       263       768       893       811       849
dram[4]:        653       683       657       694       668       659       343       336       318       317       313       329       680       814       776       811
dram[5]:        681       704       645       662       622       619       269       272       262       262       265       262       730       811       787       789
maximum mf latency per bank:
dram[0]:        359       381       344       366       335       334       338       341       284       290       307       282       537       747       570       687
dram[1]:        368       403       423       388       348       389       346       355       289       275       272       283       699       683       757       644
dram[2]:        349       365       398       348       357       366       338       333       302       287       291       309       571       583       636       646
dram[3]:        406       430       432       404       402       400       346       341       279       320       274       279       648       723       698       667
dram[4]:        368       380       368       419       397       350       431       332       285       290       278       378       647       642       612       606
dram[5]:        399       385       372       365       352       316       364       340       277       279       313       282       643       722       644       671

Number of Memory Banks Accessed per Memory Operation per Warp (from 0):
0	0	0	0	0	0	0	0	0	0	0	0	0	0	0	0	0	0	0	0	0	0	0	0	0	0	0	0	0	0	0	0	0	0	0	0	0	0	0	0	0	0	0	0	0	0	0	0	0	0	0	0	0	0	0	0	0	0	0	0	0	0	0	0	0	0	0	0	0	0	0	0	0	0	0	0	0	0	0	0	0	0	0	0	0	0	0	0	0	0	0	0	0	0	0	0	
Average # of Memory Banks Accessed per Memory Operation per Warp=-nan

position of mrq chosen
0	0	0	0	0	0	0	0	0	0	0	0	0	0	0	0	

average position of mrq chosen = -nan
Memory Partition 0: 
Cache L2_bank_000:
MSHR contents

Cache L2_bank_001:
MSHR contents

In Dram Latency Queue (total = 0): 
DRAM[0]: 16 bks, busW=4 BL=8 CL=12, tRRD=2 tCCD=6, tRCD=12 tRAS=28 tRP=12 tRC=40
n_cmd=503678 n_nop=501542 n_act=24 n_pre=8 n_req=1564 n_rd=1080 n_write=1024 bw_util=0.008355
n_activity=13235 dram_eff=0.3179
bk0: 82a 502373i bk1: 80a 502376i bk2: 76a 502561i bk3: 74a 502550i bk4: 64a 502803i bk5: 64a 502768i bk6: 64a 503418i bk7: 64a 503390i bk8: 64a 503528i bk9: 64a 503521i bk10: 64a 503528i bk11: 64a 503504i bk12: 64a 503001i bk13: 64a 502958i bk14: 64a 502214i bk15: 64a 502218i 
dram_util_bins: 0 0 0 0 0 0 0 0 0 0
dram_eff_bins: 0 0 0 0 0 0 0 0 0 0
mrqq: max=16 avg=0.0586645
Memory Partition 1: 
Cache L2_bank_002:
MSHR contents

Cache L2_bank_003:
MSHR contents

In Dram Latency Queue (total = 0): 
DRAM[1]: 16 bks, busW=4 BL=8 CL=12, tRRD=2 tCCD=6, tRCD=12 tRAS=28 tRP=12 tRC=40
n_cmd=503678 n_nop=501550 n_act=22 n_pre=6 n_req=1562 n_rd=1076 n_write=1024 bw_util=0.008339
n_activity=13206 dram_eff=0.318
bk0: 80a 502414i bk1: 80a 502386i bk2: 76a 502490i bk3: 72a 502509i bk4: 64a 502830i bk5: 64a 502756i bk6: 64a 503424i bk7: 64a 503415i bk8: 64a 503534i bk9: 64a 503537i bk10: 64a 503536i bk11: 64a 503533i bk12: 64a 503020i bk13: 64a 502959i bk14: 64a 502266i bk15: 64a 502266i 
dram_util_bins: 0 0 0 0 0 0 0 0 0 0
dram_eff_bins: 0 0 0 0 0 0 0 0 0 0
mrqq: max=16 avg=0.074361
Memory Partition 2: 
Cache L2_bank_004:
MSHR contents

Cache L2_bank_005:
MSHR contents

In Dram Latency Queue (total = 0): 
DRAM[2]: 16 bks, busW=4 BL=8 CL=12, tRRD=2 tCCD=6, tRCD=12 tRAS=28 tRP=12 tRC=40
n_cmd=503678 n_nop=501548 n_act=22 n_pre=6 n_req=1563 n_rd=1078 n_write=1024 bw_util=0.008347
n_activity=13115 dram_eff=0.3205
bk0: 80a 502503i bk1: 80a 502476i bk2: 76a 502481i bk3: 72a 502499i bk4: 64a 502816i bk5: 68a 502741i bk6: 64a 503422i bk7: 64a 503420i bk8: 64a 503510i bk9: 64a 503506i bk10: 64a 503525i bk11: 64a 503502i bk12: 64a 502988i bk13: 62a 502917i bk14: 64a 502141i bk15: 64a 502267i 
dram_util_bins: 0 0 0 0 0 0 0 0 0 0
dram_eff_bins: 0 0 0 0 0 0 0 0 0 0
mrqq: max=16 avg=0.0579199
Memory Partition 3: 
Cache L2_bank_006:
MSHR contents

Cache L2_bank_007:
MSHR contents

In Dram Latency Queue (total = 0): 
DRAM[3]: 16 bks, busW=4 BL=8 CL=12, tRRD=2 tCCD=6, tRCD=12 tRAS=28 tRP=12 tRC=40
n_cmd=503678 n_nop=501550 n_act=22 n_pre=6 n_req=1562 n_rd=1076 n_write=1024 bw_util=0.008339
n_activity=13290 dram_eff=0.316
bk0: 80a 502431i bk1: 80a 502365i bk2: 76a 502481i bk3: 72a 502492i bk4: 64a 502797i bk5: 64a 502816i bk6: 64a 503437i bk7: 64a 503422i bk8: 64a 503530i bk9: 64a 503513i bk10: 64a 503532i bk11: 64a 503523i bk12: 64a 503025i bk13: 64a 502888i bk14: 64a 502306i bk15: 64a 502337i 
dram_util_bins: 0 0 0 0 0 0 0 0 0 0
dram_eff_bins: 0 0 0 0 0 0 0 0 0 0
mrqq: max=16 avg=0.0729117
Memory Partition 4: 
Cache L2_bank_008:
MSHR contents

Cache L2_bank_009:
MSHR contents

In Dram Latency Queue (total = 0): 
DRAM[4]: 16 bks, busW=4 BL=8 CL=12, tRRD=2 tCCD=6, tRCD=12 tRAS=28 tRP=12 tRC=40
n_cmd=503678 n_nop=501550 n_act=22 n_pre=6 n_req=1562 n_rd=1076 n_write=1024 bw_util=0.008339
n_activity=13119 dram_eff=0.3201
bk0: 80a 502440i bk1: 80a 502349i bk2: 76a 502491i bk3: 72a 502462i bk4: 64a 502818i bk5: 64a 502833i bk6: 64a 503403i bk7: 64a 503455i bk8: 64a 503517i bk9: 64a 503517i bk10: 64a 503526i bk11: 64a 503526i bk12: 64a 502980i bk13: 64a 502854i bk14: 64a 502358i bk15: 64a 502265i 
dram_util_bins: 0 0 0 0 0 0 0 0 0 0
dram_eff_bins: 0 0 0 0 0 0 0 0 0 0
mrqq: max=16 avg=0.0601495
Memory Partition 5: 
Cache L2_bank_010:
MSHR contents

Cache L2_bank_011:
MSHR contents

In Dram Latency Queue (total = 0): 
DRAM[5]: 16 bks, busW=4 BL=8 CL=12, tRRD=2 tCCD=6, tRCD=12 tRAS=28 tRP=12 tRC=40
n_cmd=503678 n_nop=501552 n_act=22 n_pre=6 n_req=1561 n_rd=1074 n_write=1024 bw_util=0.008331
n_activity=13501 dram_eff=0.3108
bk0: 78a 502485i bk1: 80a 502468i bk2: 76a 502555i bk3: 72a 502555i bk4: 64a 502851i bk5: 64a 502863i bk6: 64a 503417i bk7: 64a 503443i bk8: 64a 503534i bk9: 64a 503533i bk10: 64a 503531i bk11: 64a 503533i bk12: 64a 503006i bk13: 64a 502881i bk14: 64a 502312i bk15: 64a 502195i 
dram_util_bins: 0 0 0 0 0 0 0 0 0 0
dram_eff_bins: 0 0 0 0 0 0 0 0 0 0
mrqq: max=16 avg=0.0630165

========= L2 cache stats =========
L2_cache_bank[0]: Access = 4781, Miss = 271, Miss_rate = 0.057, Pending_hits = 430, Reservation_fails = 2480
L2_cache_bank[1]: Access = 4582, Miss = 269, Miss_rate = 0.059, Pending_hits = 425, Reservation_fails = 1715
L2_cache_bank[2]: Access = 4719, Miss = 270, Miss_rate = 0.057, Pending_hits = 426, Reservation_fails = 1498
L2_cache_bank[3]: Access = 4361, Miss = 268, Miss_rate = 0.061, Pending_hits = 420, Reservation_fails = 1727
L2_cache_bank[4]: Access = 4758, Miss = 270, Miss_rate = 0.057, Pending_hits = 428, Reservation_fails = 2179
L2_cache_bank[5]: Access = 4423, Miss = 269, Miss_rate = 0.061, Pending_hits = 421, Reservation_fails = 2434
L2_cache_bank[6]: Access = 4701, Miss = 270, Miss_rate = 0.057, Pending_hits = 426, Reservation_fails = 1744
L2_cache_bank[7]: Access = 4375, Miss = 268, Miss_rate = 0.061, Pending_hits = 420, Reservation_fails = 1485
L2_cache_bank[8]: Access = 4755, Miss = 270, Miss_rate = 0.057, Pending_hits = 431, Reservation_fails = 1632
L2_cache_bank[9]: Access = 4440, Miss = 268, Miss_rate = 0.060, Pending_hits = 423, Reservation_fails = 1884
L2_cache_bank[10]: Access = 4538, Miss = 269, Miss_rate = 0.059, Pending_hits = 423, Reservation_fails = 1385
L2_cache_bank[11]: Access = 4392, Miss = 268, Miss_rate = 0.061, Pending_hits = 420, Reservation_fails = 1306
L2_total_cache_accesses = 54825
L2_total_cache_misses = 3230
L2_total_cache_miss_rate = 0.0589
L2_total_cache_pending_hits = 5093
L2_total_cache_reservation_fails = 21469
L2_total_cache_breakdown:
	L2_cache_stats_breakdown[GLOBAL_ACC_R][HIT] = 269
	L2_cache_stats_breakdown[GLOBAL_ACC_R][HIT_RESERVED] = 14
	L2_cache_stats_breakdown[GLOBAL_ACC_R][MISS] = 1537
	L2_cache_stats_breakdown[CONST_ACC_R][HIT] = 11
	L2_cache_stats_breakdown[CONST_ACC_R][HIT_RESERVED] = 3
	L2_cache_stats_breakdown[CONST_ACC_R][MISS] = 1
	L2_cache_stats_breakdown[CONST_ACC_R][RESERVATION_FAIL] = 109
	L2_cache_stats_breakdown[GLOBAL_ACC_W][HIT] = 18432
	L2_cache_stats_breakdown[GLOBAL_ACC_W][HIT_RESERVED] = 4608
	L2_cache_stats_breakdown[GLOBAL_ACC_W][MISS] = 1536
	L2_cache_stats_breakdown[GLOBAL_ACC_W][RESERVATION_FAIL] = 7044
	L2_cache_stats_breakdown[INST_ACC_R][HIT] = 27790
	L2_cache_stats_breakdown[INST_ACC_R][HIT_RESERVED] = 468
	L2_cache_stats_breakdown[INST_ACC_R][MISS] = 156
	L2_cache_stats_breakdown[INST_ACC_R][RESERVATION_FAIL] = 14316
L2_cache_data_port_util = 0.029
L2_cache_fill_port_util = 0.003

icnt_total_pkts_mem_to_simt=175791
icnt_total_pkts_simt_to_mem=79401
LD_mem_lat_dist  0 0 0 0 0 0 0 0 0 0 0 0 0 0 0 0 0 0 0 0 0 0 0 0 0 0 0
ST_mem_lat_dist  0 0 0 0 0 0 0 0 0 0 0 0 0 0 0 0 0 0 0 0 0 0 0 0 0 0 0
----------------------------Interconnect-DETAILS--------------------------------
Class 0:
Packet latency average = 14.8321
	minimum = 6
	maximum = 340
Network latency average = 11.4771
	minimum = 6
	maximum = 302
Slowest packet = 6454
Flit latency average = 9.09841
	minimum = 6
	maximum = 301
Slowest flit = 18029
Fragmentation average = 0.000893753
	minimum = 0
	maximum = 68
Injected packet rate average = 0.010643
	minimum = 0.00759484 (at node 14)
	maximum = 0.0125296 (at node 15)
Accepted packet rate average = 0.010643
	minimum = 0.00759484 (at node 14)
	maximum = 0.0125296 (at node 15)
Injected flit rate average = 0.0247699
	minimum = 0.0116203 (at node 14)
	maximum = 0.0411007 (at node 15)
Accepted flit rate average= 0.0247699
	minimum = 0.0167962 (at node 18)
	maximum = 0.0382022 (at node 6)
Injected packet length average = 2.32733
Accepted packet length average = 2.32733
Total in-flight flits = 0 (0 measured)
====== Overall Traffic Statistics ======
====== Traffic class 0 ======
Packet latency average = 14.8321 (1 samples)
	minimum = 6 (1 samples)
	maximum = 340 (1 samples)
Network latency average = 11.4771 (1 samples)
	minimum = 6 (1 samples)
	maximum = 302 (1 samples)
Flit latency average = 9.09841 (1 samples)
	minimum = 6 (1 samples)
	maximum = 301 (1 samples)
Fragmentation average = 0.000893753 (1 samples)
	minimum = 0 (1 samples)
	maximum = 68 (1 samples)
Injected packet rate average = 0.010643 (1 samples)
	minimum = 0.00759484 (1 samples)
	maximum = 0.0125296 (1 samples)
Accepted packet rate average = 0.010643 (1 samples)
	minimum = 0.00759484 (1 samples)
	maximum = 0.0125296 (1 samples)
Injected flit rate average = 0.0247699 (1 samples)
	minimum = 0.0116203 (1 samples)
	maximum = 0.0411007 (1 samples)
Accepted flit rate average = 0.0247699 (1 samples)
	minimum = 0.0167962 (1 samples)
	maximum = 0.0382022 (1 samples)
Injected packet size average = 2.32733 (1 samples)
Accepted packet size average = 2.32733 (1 samples)
Hops average = 1 (1 samples)
----------------------------END-of-Interconnect-DETAILS-------------------------


gpgpu_simulation_time = 0 days, 0 hrs, 20 min, 56 sec (1256 sec)
gpgpu_simulation_rate = 100104 (inst/sec)
gpgpu_simulation_rate = 303 (cycle/sec)
GPGPU-Sim: synchronize waiting for inactive GPU simulation
GPGPU-Sim API: Stream Manager State
GPGPU-Sim: detected inactive GPU simulation thread

== GPU Timing ==
GPU init                 : 0.021000
Host input buffer alloc  : 0.028000
-----
Host output buffer alloc : 0.005000
GPU memory alloc         : 0.004000
Data copy in             : 26.049999
Kernel execution         : 1255294.500000
Data copy out            : 26.024000
Last hasing stage        : 0.000000
GPU Proc. Time (gpu init and input alloc are not included):  1255346.500000 

== CPU Execution Context ==
Threads       : 128
Blocks        : 384
Total Threads : 49152
Total Size    : 196656
Chunk Size    : 52
Padding       : 0

CPU Processing time(ms):    28.927000 

Output size: 196608
Test PASSED
CPU GPU
FD FD
DD DD
2 2
F9 F9
